FoamFile
{
    version     2.0;
format      ascii;
class       dictionary;
object      blockMeshDict;
}
convertToMeters 1;

vertices
(
    (0.568 0.109 4.3) // 0
    (0.566994 0.109203 4.3) // 1
    (0.566976 0.108933 4.3) // 2
    (2.12132 2.12132 4.4) // 3
    (2.019038 2.218893 4.4) // 4
    (2.019038 -2.218893 4.4) // 5
    (2.12132 -2.12132 4.4) // 6
    (0.563979 0.109808 4.3) // 7
    (0.563908 0.108731 4.3) // 8
    (1.912272 2.31154 4.4) // 9
    (1.912272 -2.31154 4.4) // 10
    (0.558966 0.110808 4.3) // 11
    (0.558808 0.108398 4.3) // 12
    (1.801261 2.399054 4.4) // 13
    (1.801261 -2.399054 4.4) // 14
    (0.551974 0.112191 4.3) // 15
    (0.551698 0.107936 4.3) // 16
    (1.68625 2.481242 4.4) // 17
    (1.68625 -2.481242 4.4) // 18
    (0.543029 0.11394 4.3) // 19
    (0.542607 0.107348 4.3) // 20
    (1.567496 2.55792 4.4) // 21
    (1.567496 -2.55792 4.4) // 22
    (0.532165 0.116035 4.3) // 23
    (0.531575 0.106641 4.3) // 24
    (1.445261 2.62892 4.4) // 25
    (1.445261 -2.62892 4.4) // 26
    (0.519421 0.118452 4.3) // 27
    (0.518646 0.105818 4.3) // 28
    (1.319818 2.694083 4.4) // 29
    (1.319818 -2.694083 4.4) // 30
    (0.504846 0.121162 4.3) // 31
    (0.503873 0.104886 4.3) // 32
    (1.191444 2.753264 4.4) // 33
    (1.191444 -2.753264 4.4) // 34
    (0.488495 0.124136 4.3) // 35
    (0.487318 0.103851 4.3) // 36
    (1.060425 2.806332 4.4) // 37
    (1.060425 -2.806332 4.4) // 38
    (0.470429 0.127339 4.3) // 39
    (0.469049 0.10272 4.3) // 40
    (0.927051 2.85317 4.4) // 41
    (0.927051 -2.85317 4.4) // 42
    (0.450718 0.13074 4.3) // 43
    (0.44914 0.101498 4.3) // 44
    (0.791619 2.893672 4.4) // 45
    (0.791619 -2.893672 4.4) // 46
    (0.429435 0.134302 4.3) // 47
    (0.427674 0.100191 4.3) // 48
    (0.65443 2.92775 4.4) // 49
    (0.65443 -2.92775 4.4) // 50
    (0.406662 0.137989 4.3) // 51
    (0.404737 0.098807 4.3) // 52
    (0.515787 2.955328 4.4) // 53
    (0.515787 -2.955328 4.4) // 54
    (0.382488 0.141765 4.3) // 55
    (0.380422 0.09735 4.3) // 56
    (0.376 2.976344 4.4) // 57
    (0.376 -2.976344 4.4) // 58
    (0.357005 0.145593 4.3) // 59
    (0.354826 0.095828 4.3) // 60
    (0.235377 2.990752 4.4) // 61
    (0.235377 -2.990752 4.4) // 62
    (0.330311 0.149436 4.3) // 63
    (0.328055 0.094248 4.3) // 64
    (0.094232 2.99852 4.4) // 65
    (0.094232 -2.99852 4.4) // 66
    (0.302511 0.153257 4.3) // 67
    (0.300214 0.092617 4.3) // 68
    (-0.047122 2.99963 4.4) // 69
    (-0.047122 -2.99963 4.4) // 70
    (0.273712 0.157022 4.3) // 71
    (0.271414 0.090944 4.3) // 72
    (-0.188372 2.99408 4.4) // 73
    (-0.188372 -2.99408 4.4) // 74
    (0.244028 0.160695 4.3) // 75
    (0.241772 0.08924 4.3) // 76
    (-0.329203 2.981883 4.4) // 77
    (-0.329203 -2.981883 4.4) // 78
    (0.213574 0.164239 4.3) // 79
    (0.211404 0.087516 4.3) // 80
    (-0.469303 2.963065 4.4) // 81
    (-0.469303 -2.963065 4.4) // 82
    (0.182471 0.167621 4.3) // 83
    (0.180431 0.085785 4.3) // 84
    (-0.608362 2.937668 4.4) // 85
    (-0.608362 -2.937668 4.4) // 86
    (0.150841 0.170807 4.3) // 87
    (0.148975 0.084063 4.3) // 88
    (-0.74607 2.905749 4.4) // 89
    (-0.74607 -2.905749 4.4) // 90
    (0.11881 0.173765 4.3) // 91
    (0.117158 0.082369 4.3) // 92
    (-0.882121 2.867379 4.4) // 93
    (-0.882121 -2.867379 4.4) // 94
    (0.086504 0.176461 4.3) // 95
    (0.085107 0.080724 4.3) // 96
    (-1.016214 2.822642 4.4) // 97
    (-1.016214 -2.822642 4.4) // 98
    (0.054054 0.178867 4.3) // 99
    (0.052946 0.07915 4.3) // 100
    (-1.14805 2.771639 4.4) // 101
    (-1.14805 -2.771639 4.4) // 102
    (0.021588 0.180952 4.3) // 103
    (0.0208 0.07767 4.3) // 104
    (-1.277338 2.714481 4.4) // 105
    (-1.277338 -2.714481 4.4) // 106
    (-0.010763 0.18269 4.3) // 107
    (-0.011205 0.076312 4.3) // 108
    (-1.403789 2.651297 4.4) // 109
    (-1.403789 -2.651297 4.4) // 110
    (-0.04287 0.184055 4.3) // 111
    (-0.042946 0.075101 4.3) // 112
    (-1.527124 2.582226 4.4) // 113
    (-1.527124 -2.582226 4.4) // 114
    (-0.074789 0.184983 4.3) // 115
    (-0.074113 0.074024 4.3) // 116
    (-1.647068 2.507422 4.4) // 117
    (-1.647068 -2.507422 4.4) // 118
    (-0.106254 0.185369 4.3) // 119
    (-0.104724 0.073026 4.3) // 120
    (-1.763356 2.427051 4.4) // 121
    (-1.763356 -2.427051 4.4) // 122
    (-0.137088 0.185204 4.3) // 123
    (-0.134712 0.072138 4.3) // 124
    (-1.875728 2.341291 4.4) // 125
    (-1.875728 -2.341291 4.4) // 126
    (-0.16716 0.184486 4.3) // 127
    (-0.163968 0.071395 4.3) // 128
    (-1.983936 2.250333 4.4) // 129
    (-1.983936 -2.250333 4.4) // 130
    (-0.196341 0.183223 4.3) // 131
    (-0.192383 0.070831 4.3) // 132
    (-2.087738 2.154379 4.4) // 133
    (-2.087738 -2.154379 4.4) // 134
    (-0.224511 0.181427 4.3) // 135
    (-0.219854 0.07048 4.3) // 136
    (-2.186906 2.053641 4.4) // 137
    (-2.186906 -2.053641 4.4) // 138
    (-0.251551 0.179117 4.3) // 139
    (-0.24628 0.070371 4.3) // 140
    (-2.281218 1.948344 4.4) // 141
    (-2.281218 -1.948344 4.4) // 142
    (-0.277347 0.17632 4.3) // 143
    (-0.271562 0.070534 4.3) // 144
    (-2.370465 1.838721 4.4) // 145
    (-2.370465 -1.838721 4.4) // 146
    (-0.301791 0.173067 4.3) // 147
    (-0.295608 0.070994 4.3) // 148
    (-2.454449 1.725016 4.4) // 149
    (-2.454449 -1.725016 4.4) // 150
    (-0.324782 0.169395 4.3) // 151
    (-0.318327 0.07177 4.3) // 152
    (-2.532984 1.60748 4.4) // 153
    (-2.532984 -1.60748 4.4) // 154
    (-0.346226 0.165345 4.3) // 155
    (-0.339633 0.072882 4.3) // 156
    (-2.605895 1.486376 4.4) // 157
    (-2.605895 -1.486376 4.4) // 158
    (-0.366037 0.160963 4.3) // 159
    (-0.359442 0.074343 4.3) // 160
    (-2.67302 1.361971 4.4) // 161
    (-2.67302 -1.361971 4.4) // 162
    (-0.384134 0.156297 4.3) // 163
    (-0.37768 0.076164 4.3) // 164
    (-2.73421 1.234543 4.4) // 165
    (-2.73421 -1.234543 4.4) // 166
    (-0.400447 0.151395 4.3) // 167
    (-0.394272 0.078349 4.3) // 168
    (-2.789329 1.104374 4.4) // 169
    (-2.789329 -1.104374 4.4) // 170
    (-0.414914 0.146306 4.3) // 171
    (-0.409153 0.080904 4.3) // 172
    (-2.838256 0.971752 4.4) // 173
    (-2.838256 -0.971752 4.4) // 174
    (-0.427481 0.141079 4.3) // 175
    (-0.422259 0.08383 4.3) // 176
    (-2.880881 0.836973 4.4) // 177
    (-2.880881 -0.836973 4.4) // 178
    (-0.438102 0.135758 4.3) // 179
    (-0.433536 0.087124 4.3) // 180
    (-2.91711 0.700336 4.4) // 181
    (-2.91711 -0.700336 4.4) // 182
    (-0.446738 0.130385 4.3) // 183
    (-0.442934 0.090785 4.3) // 184
    (-2.946862 0.562144 4.4) // 185
    (-2.946862 -0.562144 4.4) // 186
    (-0.453363 0.124995 4.3) // 187
    (-0.450411 0.094807 4.3) // 188
    (-2.970071 0.422704 4.4) // 189
    (-2.970071 -0.422704 4.4) // 190
    (-0.457954 0.11962 4.3) // 191
    (-0.455931 0.099187 4.3) // 192
    (-2.986686 0.282325 4.4) // 193
    (-2.986686 -0.282325 4.4) // 194
    (-0.460502 0.114283 4.3) // 195
    (-0.459468 0.10392 4.3) // 196
    (-2.99667 0.141319 4.4) // 197
    (-2.99667 -0.141319 4.4) // 198
    (-0.461 0.109 4.3) // 199
    (-3.0 0.0 4.4) // 200
    (2.249099 1.985335 4.4) // 201
    (2.249099 -1.985335 4.4) // 202
    (2.368175 1.841669 4.4) // 203
    (2.368175 -1.841669 4.4) // 204
    (2.47809 1.690878 4.4) // 205
    (2.47809 -1.690878 4.4) // 206
    (2.578418 1.533545 4.4) // 207
    (2.578418 -1.533545 4.4) // 208
    (2.66877 1.370279 4.4) // 209
    (2.66877 -1.370279 4.4) // 210
    (2.748798 1.201712 4.4) // 211
    (2.748798 -1.201712 4.4) // 212
    (2.81819 1.028496 4.4) // 213
    (2.81819 -1.028496 4.4) // 214
    (2.87668 0.8513 4.4) // 215
    (2.87668 -0.8513 4.4) // 216
    (2.92404 0.670811 4.4) // 217
    (2.92404 -0.670811 4.4) // 218
    (2.960088 0.487727 4.4) // 219
    (2.960088 -0.487727 4.4) // 220
    (2.984684 0.302756 4.4) // 221
    (2.984684 -0.302756 4.4) // 222
    (2.997733 0.116614 4.4) // 223
    (2.997733 -0.116614 4.4) // 224
    (2.999184 -0.06998 4.4) // 225
    (2.999184 0.06998 4.4) // 226
);

blocks
(
  hex ( 0 1 2 0 3 4 5 6 ) (1 20 20) simpleGrading (1 1 1000) // 0 
  hex ( 1 7 8 2 4 9 10 5 ) (1 20 20) simpleGrading (1 1 1000) // 1 
  hex ( 7 11 12 8 9 13 14 10 ) (1 20 20) simpleGrading (1 1 1000) // 2 
  hex ( 11 15 16 12 13 17 18 14 ) (1 20 20) simpleGrading (1 1 1000) // 3 
  hex ( 15 19 20 16 17 21 22 18 ) (1 20 20) simpleGrading (1 1 1000) // 4 
  hex ( 19 23 24 20 21 25 26 22 ) (1 20 20) simpleGrading (1 1 1000) // 5 
  hex ( 23 27 28 24 25 29 30 26 ) (1 20 20) simpleGrading (1 1 1000) // 6 
  hex ( 27 31 32 28 29 33 34 30 ) (1 20 20) simpleGrading (1 1 1000) // 7 
  hex ( 31 35 36 32 33 37 38 34 ) (1 20 20) simpleGrading (1 1 1000) // 8 
  hex ( 35 39 40 36 37 41 42 38 ) (1 20 20) simpleGrading (1 1 1000) // 9 
  hex ( 39 43 44 40 41 45 46 42 ) (1 20 20) simpleGrading (1 1 1000) // 10 
  hex ( 43 47 48 44 45 49 50 46 ) (1 20 20) simpleGrading (1 1 1000) // 11 
  hex ( 47 51 52 48 49 53 54 50 ) (1 20 20) simpleGrading (1 1 1000) // 12 
  hex ( 51 55 56 52 53 57 58 54 ) (1 20 20) simpleGrading (1 1 1000) // 13 
  hex ( 55 59 60 56 57 61 62 58 ) (1 20 20) simpleGrading (1 1 1000) // 14 
  hex ( 59 63 64 60 61 65 66 62 ) (1 20 20) simpleGrading (1 1 1000) // 15 
  hex ( 63 67 68 64 65 69 70 66 ) (1 20 20) simpleGrading (1 1 1000) // 16 
  hex ( 67 71 72 68 69 73 74 70 ) (1 20 20) simpleGrading (1 1 1000) // 17 
  hex ( 71 75 76 72 73 77 78 74 ) (1 20 20) simpleGrading (1 1 1000) // 18 
  hex ( 75 79 80 76 77 81 82 78 ) (1 20 20) simpleGrading (1 1 1000) // 19 
  hex ( 79 83 84 80 81 85 86 82 ) (1 20 20) simpleGrading (1 1 1000) // 20 
  hex ( 83 87 88 84 85 89 90 86 ) (1 20 20) simpleGrading (1 1 1000) // 21 
  hex ( 87 91 92 88 89 93 94 90 ) (1 20 20) simpleGrading (1 1 1000) // 22 
  hex ( 91 95 96 92 93 97 98 94 ) (1 20 20) simpleGrading (1 1 1000) // 23 
  hex ( 95 99 100 96 97 101 102 98 ) (1 20 20) simpleGrading (1 1 1000) // 24 
  hex ( 99 103 104 100 101 105 106 102 ) (1 20 20) simpleGrading (1 1 1000) // 25 
  hex ( 103 107 108 104 105 109 110 106 ) (1 20 20) simpleGrading (1 1 1000) // 26 
  hex ( 107 111 112 108 109 113 114 110 ) (1 20 20) simpleGrading (1 1 1000) // 27 
  hex ( 111 115 116 112 113 117 118 114 ) (1 20 20) simpleGrading (1 1 1000) // 28 
  hex ( 115 119 120 116 117 121 122 118 ) (1 20 20) simpleGrading (1 1 1000) // 29 
  hex ( 119 123 124 120 121 125 126 122 ) (1 20 20) simpleGrading (1 1 1000) // 30 
  hex ( 123 127 128 124 125 129 130 126 ) (1 20 20) simpleGrading (1 1 1000) // 31 
  hex ( 127 131 132 128 129 133 134 130 ) (1 20 20) simpleGrading (1 1 1000) // 32 
  hex ( 131 135 136 132 133 137 138 134 ) (1 20 20) simpleGrading (1 1 1000) // 33 
  hex ( 135 139 140 136 137 141 142 138 ) (1 20 20) simpleGrading (1 1 1000) // 34 
  hex ( 139 143 144 140 141 145 146 142 ) (1 20 20) simpleGrading (1 1 1000) // 35 
  hex ( 143 147 148 144 145 149 150 146 ) (1 20 20) simpleGrading (1 1 1000) // 36 
  hex ( 147 151 152 148 149 153 154 150 ) (1 20 20) simpleGrading (1 1 1000) // 37 
  hex ( 151 155 156 152 153 157 158 154 ) (1 20 20) simpleGrading (1 1 1000) // 38 
  hex ( 155 159 160 156 157 161 162 158 ) (1 20 20) simpleGrading (1 1 1000) // 39 
  hex ( 159 163 164 160 161 165 166 162 ) (1 20 20) simpleGrading (1 1 1000) // 40 
  hex ( 163 167 168 164 165 169 170 166 ) (1 20 20) simpleGrading (1 1 1000) // 41 
  hex ( 167 171 172 168 169 173 174 170 ) (1 20 20) simpleGrading (1 1 1000) // 42 
  hex ( 171 175 176 172 173 177 178 174 ) (1 20 20) simpleGrading (1 1 1000) // 43 
  hex ( 175 179 180 176 177 181 182 178 ) (1 20 20) simpleGrading (1 1 1000) // 44 
  hex ( 179 183 184 180 181 185 186 182 ) (1 20 20) simpleGrading (1 1 1000) // 45 
  hex ( 183 187 188 184 185 189 190 186 ) (1 20 20) simpleGrading (1 1 1000) // 46 
  hex ( 187 191 192 188 189 193 194 190 ) (1 20 20) simpleGrading (1 1 1000) // 47 
  hex ( 191 195 196 192 193 197 198 194 ) (1 20 20) simpleGrading (1 1 1000) // 48 
  hex ( 195 199 199 196 197 200 200 198 ) (1 20 20) simpleGrading (1 1 1000) // 49 
  hex ( 0 0 0 0 201 3 6 202 ) (1 20 20) simpleGrading (1 1 1000) // 50 
  hex ( 0 0 0 0 203 201 202 204 ) (1 20 20) simpleGrading (1 1 1000) // 51 
  hex ( 0 0 0 0 205 203 204 206 ) (1 20 20) simpleGrading (1 1 1000) // 52 
  hex ( 0 0 0 0 207 205 206 208 ) (1 20 20) simpleGrading (1 1 1000) // 53 
  hex ( 0 0 0 0 209 207 208 210 ) (1 20 20) simpleGrading (1 1 1000) // 54 
  hex ( 0 0 0 0 211 209 210 212 ) (1 20 20) simpleGrading (1 1 1000) // 55 
  hex ( 0 0 0 0 213 211 212 214 ) (1 20 20) simpleGrading (1 1 1000) // 56 
  hex ( 0 0 0 0 215 213 214 216 ) (1 20 20) simpleGrading (1 1 1000) // 57 
  hex ( 0 0 0 0 217 215 216 218 ) (1 20 20) simpleGrading (1 1 1000) // 58 
  hex ( 0 0 0 0 219 217 218 220 ) (1 20 20) simpleGrading (1 1 1000) // 59 
  hex ( 0 0 0 0 221 219 220 222 ) (1 20 20) simpleGrading (1 1 1000) // 60 
  hex ( 0 0 0 0 223 221 222 224 ) (1 20 20) simpleGrading (1 1 1000) // 61 
  hex ( 0 0 0 0 225 223 224 226 ) (1 20 20) simpleGrading (1 1 1000) // 62 
);

edges
(
    arc 1 2 (0.5669848914999999 0.10906791399999999 4.300134798999999) // 0 
    arc 3 6 (2.1213203435596424 0 6.421320343559643) // 1 
    arc 4 5 (2.01903754052932 0 6.518893284935829) // 2 
    arc 7 8 (0.5639431674999998 0.109269598 4.300538167) // 3 
    arc 9 10 (1.9122719692460688 0 6.611539728327368) // 4 
    arc 11 12 (0.5588871759999999 0.10960299400000001 4.301204959) // 5 
    arc 13 14 (1.8012606759776522 0 6.699053975461272) // 6 
    arc 15 16 (0.5518359534999999 0.1100634715 4.3021274575) // 7 
    arc 17 18 (1.6862501335563918 0 6.781241722823685) // 8 
    arc 19 20 (0.5428183119999997 0.110644342 4.303295887) // 9 
    arc 21 22 (1.5674956941478464 0 6.857920493062276) // 10 
    arc 23 24 (0.5318702664999999 0.111337888 4.304697385) // 11 
    arc 25 26 (1.445261022305146 0 6.92892004013159) // 12 
    arc 27 28 (0.5190334915 0.112135363 4.306317031) // 13 
    arc 29 30 (1.3198175095677454 0 6.994082727281847) // 14 
    arc 31 32 (0.5043594369999999 0.1130239045 4.3081378465) // 15 
    arc 33 34 (1.191443671904342 0 7.053263877051943) // 16 
    arc 35 36 (0.4879067559999999 0.1139932225 4.3101423384999995) // 17 
    arc 37 38 (1.0604245313377714 0 7.106332092489602) // 18 
    arc 39 40 (0.4697392464999999 0.1150294255 4.312309412499999) // 19 
    arc 41 42 (0.927050983124842 0 7.153169548885461) // 20 
    arc 43 44 (0.4499289384999999 0.116118622 4.3146210609999995) // 21 
    arc 45 46 (0.7916191498961186 0 7.193672255373394) // 22 
    arc 47 48 (0.4285545504999999 0.117246406 4.317055675) // 23 
    arc 49 50 (0.6544297241896277 0 7.227750285816242) // 24 
    arc 51 52 (0.4056994314999999 0.118397857 4.319591131) // 25 
    arc 53 54 (0.5157873008382285 0 7.255327978464322) // 26 
    arc 55 56 (0.3814546479999999 0.11955754 4.3222078779999995) // 27 
    arc 57 58 (0.37599970069291255 0 7.276344103943433) // 28 
    arc 59 60 (0.35591538249999993 0.12071053450000001 4.3248827635) // 29 
    arc 61 62 (0.23537728718353504 0 7.290752001199383) // 30 
    arc 63 64 (0.32918299149999986 0.12184192 4.327593664) // 31 
    arc 65 66 (0.09423227723438496 0 7.298519681097194) // 32 
    arc 67 68 (0.30136243299999993 0.12293729049999999 4.3303199994999995) // 33 
    arc 69 70 (-0.047121951935462064 0 7.299629897444982) // 34 
    arc 71 72 (0.2725632954999999 0.12398326900000001 4.333039132) // 35 
    arc 73 74 (-0.1883715585879403 0 7.294080185284814) // 36 
    arc 75 76 (0.24289979799999994 0.12496750749999999 4.3357273945) // 37 
    arc 77 78 (-0.3292029332731361 0 7.281882866365539) // 38 
    arc 79 80 (0.21248924649999995 0.1258771435 4.3383616345) // 39 
    arc 81 82 (-0.469303395120693 0 7.263065021785413) // 40 
    arc 83 84 (0.1814510049999999 0.126702916 4.340918185) // 41 
    arc 85 86 (-0.6083618860695374 0 7.237668431865297) // 42 
    arc 87 88 (0.14990803899999994 0.1274350495 4.3433718355) // 43 
    arc 89 90 (-0.7460696614945643 0 7.205749483385893) // 44 
    arc 91 92 (0.11798382849999994 0.12806736999999999 4.345697889999999) // 45 
    arc 93 94 (-0.8821209756969122 0 7.16737904439499) // 46 
    arc 95 96 (0.08580545499999992 0.1285926745 4.3478685655) // 47 
    arc 97 98 (-1.0162137607358739 0 7.1226423068626765) // 48 
    arc 99 100 (0.053499999999999936 0.1290083905 4.3498586515) // 49 
    arc 101 102 (-1.1480502970952693 0 7.07163859753386) // 50 
    arc 103 104 (0.02119403049999996 0.12931091649999998 4.3516408795) // 51 
    arc 105 106 (-1.2773378746952182 0 7.014481157398058) // 52 
    arc 107 108 (-0.01098382850000007 0.12950076700000002 4.3531890099999995) // 53 
    arc 109 110 (-1.4037894427817204 0 6.95129689026608) // 54 
    arc 111 112 (-0.042908039000000064 0.129577942 4.354477318) // 55 
    arc 113 114 (-1.527124247251114 0 6.882226081011831) // 56 
    arc 115 116 (-0.07445100500000004 0.129503854 4.3554795639999995) // 57 
    arc 117 118 (-1.6470684539943947 0 6.807422084104811) // 58 
    arc 119 120 (-0.10548924650000005 0.1291977265 4.3561715665) // 59 
    arc 121 122 (-1.7633557568774192 0 6.727050983124842) // 60 
    arc 123 124 (-0.13590031250000006 0.12867087849999997 4.3565327455) // 61 
    arc 125 126 (-1.8757279690071154 0 6.641291222014989) // 62 
    arc 127 128 (-0.16556381000000006 0.127940803 4.356545608) // 63 
    arc 129 130 (-1.9839355959709555 0 6.550333208891379) // 64 
    arc 131 132 (-0.19436191850000006 0.127027051 4.356195748) // 65 
    arc 133 134 (-2.087738389776943 0 6.454378893289566) // 66 
    arc 135 136 (-0.22218247700000004 0.125953804 4.35547339) // 67 
    arc 137 138 (-2.1869058822642344 0 6.353641317786066) // 68 
    arc 139 140 (-0.24891538250000006 0.1247442145 4.3543728745) // 69 
    arc 141 142 (-2.2812178968000922 0 6.2483441449905515) // 70 
    arc 143 144 (-0.274454648 0.12342709449999999 4.3528931725) // 71 
    arc 145 146 (-2.3704650371270715 0 6.138721160958929) // 72 
    arc 147 148 (-0.29869943150000006 0.122030227 4.351036342) // 73 
    arc 149 150 (-2.4544491522750698 0 6.025015756129836) // 74 
    arc 151 152 (-0.32155455050000004 0.120582424 4.348812672999999) // 75 
    arc 153 154 (-2.532983776506045 0 5.9074803849369895) // 76 
    arc 155 156 (-0.34292945300000005 0.1191135265 4.3462314265) // 77 
    arc 157 158 (-2.605894543314573 0 5.786376005297223) // 78 
    arc 159 160 (-0.3627392465 0.11765337549999999 4.3433100955) // 79 
    arc 161 162 (-2.673019572565104 0 5.661971499218639) // 80 
    arc 163 164 (-0.380906756 0.1162302685 4.3400666875) // 81 
    arc 165 166 (-2.7342098299063355 0 5.534543075815327) // 82 
    arc 167 168 (-0.39735995150000003 0.1148719885 4.3365228115) // 83 
    arc 169 170 (-2.789329457664754 0 5.404373658054034) // 84 
    arc 171 172 (-0.4120334915 0.11360528950000001 4.3327011055) // 85 
    arc 173 174 (-2.8382560764826357 0 5.271752254594448) // 86 
    arc 175 176 (-0.42487026650000004 0.112454353 4.328624722) // 87 
    arc 177 178 (-2.8808810570308294 0 5.136973318117688) // 88 
    arc 179 180 (-0.43581882650000003 0.11144130249999999 4.324316813499999) // 89 
    arc 181 182 (-2.91710976119303 0 5.000336091567716) // 90 
    arc 183 184 (-0.44483595350000005 0.11058466 4.319800018) // 91 
    arc 185 186 (-2.946861752186066 0 4.862143943757173) // 92 
    arc 187 188 (-0.4518866615 0.1099008895 4.3150938865) // 93 
    arc 189 190 (-2.9700709731496726 0 4.722703695812748) // 94 
    arc 191 192 (-0.45694265300000003 0.1094038825 4.3102164265) // 95 
    arc 193 194 (-2.98668589380924 0 4.5823249399555435) // 96 
    arc 195 196 (-0.4599848915 0.1091013565 4.3051815294999995) // 97 
    arc 197 198 (-2.99666962488591 0 4.441319352128928) // 98 
    arc 201 202 (2.249098572041623 0 6.285335138771369) // 99 
    arc 203 204 (2.3681754750744304 0 6.1416690580166655) // 100 
    arc 205 206 (2.4780903672529675 0 5.990877917452367) // 101 
    arc 207 208 (2.578418009212252 0 5.833545098707543) // 102 
    arc 209 210 (2.6687702527959116 0 5.670279291893316) // 103 
    arc 211 212 (2.748797542725998 0 5.501712140699059) // 104 
    arc 213 214 (2.818190268964449 0 5.328495798685676) // 105 
    arc 215 216 (2.876679964534177 0 5.151300406230165) // 106 
    arc 217 218 (2.924040344165652 0 4.970811497882687) // 107 
    arc 219 220 (2.9600881797506475 0 4.7877273501665645) // 108 
    arc 221 222 (2.9846840092161964 0 4.60275628008207) // 109 
    arc 223 224 (2.9977326760762595 0 4.416613904765548) // 110 
    arc 225 226 (2.9991836975736827 0 4.230020372905743) // 111 
);

boundary
(
    freestream { type patch; faces ((  3  4  5  6 )(  4  9  10  5 )(  9  13  14  10 )(  13  17  18  14 )(  17  21  22  18 )(  21  25  26  22 )(  25  29  30  26 )(  29  33  34  30 )(  33  37  38  34 )(  37  41  42  38 )(  41  45  46  42 )(  45  49  50  46 )(  49  53  54  50 )(  53  57  58  54 )(  57  61  62  58 )(  61  65  66  62 )(  65  69  70  66 )(  69  73  74  70 )(  73  77  78  74 )(  77  81  82  78 )(  81  85  86  82 )(  85  89  90  86 )(  89  93  94  90 )(  93  97  98  94 )(  97  101  102  98 )(  101  105  106  102 )(  105  109  110  106 )(  109  113  114  110 )(  113  117  118  114 )(  117  121  122  118 )(  121  125  126  122 )(  125  129  130  126 )(  129  133  134  130 )(  133  137  138  134 )(  137  141  142  138 )(  141  145  146  142 )(  145  149  150  146 )(  149  153  154  150 )(  153  157  158  154 )(  157  161  162  158 )(  161  165  166  162 )(  165  169  170  166 )(  169  173  174  170 )(  173  177  178  174 )(  177  181  182  178 )(  181  185  186  182 )(  185  189  190  186 )(  189  193  194  190 )(  193  197  198  194 )(  197  200  200  198 ));}
    wing { type wall; faces ((  0  2  1  0 )(  2  8  7  1 )(  8  12  11  7 )(  12  16  15  11 )(  16  20  19  15 )(  20  24  23  19 )(  24  28  27  23 )(  28  32  31  27 )(  32  36  35  31 )(  36  40  39  35 )(  40  44  43  39 )(  44  48  47  43 )(  48  52  51  47 )(  52  56  55  51 )(  56  60  59  55 )(  60  64  63  59 )(  64  68  67  63 )(  68  72  71  67 )(  72  76  75  71 )(  76  80  79  75 )(  80  84  83  79 )(  84  88  87  83 )(  88  92  91  87 )(  92  96  95  91 )(  96  100  99  95 )(  100  104  103  99 )(  104  108  107  103 )(  108  112  111  107 )(  112  116  115  111 )(  116  120  119  115 )(  120  124  123  119 )(  124  128  127  123 )(  128  132  131  127 )(  132  136  135  131 )(  136  140  139  135 )(  140  144  143  139 )(  144  148  147  143 )(  148  152  151  147 )(  152  156  155  151 )(  156  160  159  155 )(  160  164  163  159 )(  164  168  167  163 )(  168  172  171  167 )(  172  176  175  171 )(  176  180  179  175 )(  180  184  183  179 )(  184  188  187  183 )(  188  192  191  187 )(  192  196  195  191 )(  196  199  199  195 ));}
);

mergePatchPairs
(
);
