FoamFile
{
    version     2.0;
format      ascii;
class       dictionary;
object      blockMeshDict;
}
convertToMeters 1;

vertices
(
    (1.182908 0.000499 0.0) // 0
    (1.185 0.0 0.0) // 1
    (10.606602 10.606602 0.0) // 2
    (10.095188 11.094466 0.0) // 3
    (0.575973 0.109207 4.215) // 4
    (0.577 0.109 4.215) // 5
    (10.606602 10.606602 4.315) // 6
    (10.095188 11.094466 4.315) // 7
    (0.575955 0.108932 4.215) // 8
    (10.606602 -10.606602 4.315) // 9
    (10.095188 -11.094466 4.315) // 10
    (1.182861 -0.000216 0.0) // 11
    (10.606602 -10.606602 0.0) // 12
    (10.095188 -11.094466 0.0) // 13
    (1.176644 0.001987 0.0) // 14
    (9.56136 11.557699 0.0) // 15
    (0.572897 0.109824 4.215) // 16
    (9.56136 11.557699 4.315) // 17
    (0.572824 0.108726 4.215) // 18
    (9.56136 -11.557699 4.315) // 19
    (1.176456 -0.000864 0.0) // 20
    (9.56136 -11.557699 0.0) // 21
    (1.166229 0.004449 0.0) // 22
    (9.006303 11.99527 0.0) // 23
    (0.567782 0.110845 4.215) // 24
    (9.006303 11.99527 4.315) // 25
    (0.56762 0.108386 4.215) // 26
    (9.006303 -11.99527 4.315) // 27
    (1.165812 -0.001937 0.0) // 28
    (9.006303 -11.99527 0.0) // 29
    (1.151702 0.007854 0.0) // 30
    (8.431251 12.406209 0.0) // 31
    (0.560647 0.112256 4.215) // 32
    (8.431251 12.406209 4.315) // 33
    (0.560365 0.107914 4.215) // 34
    (8.431251 -12.406209 4.315) // 35
    (1.150971 -0.003425 0.0) // 36
    (8.431251 -12.406209 0.0) // 37
    (1.133116 0.012162 0.0) // 38
    (7.837478 12.789602 0.0) // 39
    (0.55152 0.114041 4.215) // 40
    (7.837478 12.789602 4.315) // 41
    (0.551089 0.107315 4.215) // 42
    (7.837478 -12.789602 4.315) // 43
    (1.131999 -0.00531 0.0) // 44
    (7.837478 -12.789602 0.0) // 45
    (1.110537 0.01732 0.0) // 46
    (7.226305 13.1446 0.0) // 47
    (0.540434 0.116179 4.215) // 48
    (7.226305 13.1446 4.315) // 49
    (0.539832 0.106592 4.215) // 50
    (7.226305 -13.1446 4.315) // 51
    (1.108975 -0.007582 0.0) // 52
    (7.226305 -13.1446 0.0) // 53
    (1.08405 0.023273 0.0) // 54
    (6.599088 13.470414 0.0) // 55
    (0.52743 0.118645 4.215) // 56
    (6.599088 13.470414 4.315) // 57
    (0.526639 0.105753 4.215) // 58
    (6.599088 -13.470414 4.315) // 59
    (1.081995 -0.010216 0.0) // 60
    (6.599088 -13.470414 0.0) // 61
    (1.053752 0.029951 0.0) // 62
    (5.957218 13.766319 0.0) // 63
    (0.512557 0.12141 4.215) // 64
    (5.957218 13.766319 4.315) // 65
    (0.511564 0.104802 4.215) // 66
    (5.957218 -13.766319 4.315) // 67
    (1.051172 -0.01319 0.0) // 68
    (5.957218 -13.766319 0.0) // 69
    (1.019758 0.037282 0.0) // 70
    (5.302123 14.03166 0.0) // 71
    (0.495873 0.124444 4.215) // 72
    (5.302123 14.03166 4.315) // 73
    (0.494672 0.103746 4.215) // 74
    (5.302123 -14.03166 4.315) // 75
    (1.016637 -0.016484 0.0) // 76
    (5.302123 -14.03166 0.0) // 77
    (0.982191 0.045185 0.0) // 78
    (4.635255 14.265848 0.0) // 79
    (0.477438 0.127713 4.215) // 80
    (4.635255 14.265848 4.315) // 81
    (0.47603 0.102592 4.215) // 82
    (4.635255 -14.265848 4.315) // 83
    (0.978533 -0.020071 0.0) // 84
    (4.635255 -14.265848 0.0) // 85
    (0.941195 0.053581 0.0) // 86
    (3.958096 14.468361 0.0) // 87
    (0.457324 0.131183 4.215) // 88
    (3.958096 14.468361 4.315) // 89
    (0.455715 0.101344 4.215) // 90
    (3.958096 -14.468361 4.315) // 91
    (0.937016 -0.023929 0.0) // 92
    (3.958096 -14.468361 0.0) // 93
    (0.896923 0.062381 0.0) // 94
    (3.272149 14.638751 0.0) // 95
    (0.435607 0.134818 4.215) // 96
    (3.272149 14.638751 4.315) // 97
    (0.43381 0.100011 4.215) // 98
    (3.272149 -14.638751 4.315) // 99
    (0.892258 -0.028033 0.0) // 100
    (3.272149 -14.638751 0.0) // 101
    (0.849543 0.071501 0.0) // 102
    (2.578937 14.77664 0.0) // 103
    (0.412369 0.138581 4.215) // 104
    (2.578937 14.77664 4.315) // 105
    (0.410405 0.098599 4.215) // 106
    (2.578937 -14.77664 4.315) // 107
    (0.844441 -0.032357 0.0) // 108
    (2.578937 -14.77664 0.0) // 109
    (0.799239 0.080851 0.0) // 110
    (1.879999 14.881721 0.0) // 111
    (0.387702 0.142434 4.215) // 112
    (1.879999 14.881721 4.315) // 113
    (0.385593 0.097112 4.215) // 114
    (1.879999 -14.881721 4.315) // 115
    (0.793761 -0.036877 0.0) // 116
    (1.879999 -14.881721 0.0) // 117
    (0.746199 0.09034 0.0) // 118
    (1.176886 14.95376 0.0) // 119
    (0.361699 0.14634 4.215) // 120
    (1.176886 14.95376 4.315) // 121
    (0.359476 0.095559 4.215) // 122
    (1.176886 -14.95376 4.315) // 123
    (0.740426 -0.041563 0.0) // 124
    (1.176886 -14.95376 0.0) // 125
    (0.690629 0.099885 0.0) // 126
    (0.471161 14.992598 0.0) // 127
    (0.334461 0.150261 4.215) // 128
    (0.471161 14.992598 4.315) // 129
    (0.332158 0.093947 4.215) // 130
    (0.471161 -14.992598 4.315) // 131
    (0.684648 -0.046396 0.0) // 132
    (0.471161 -14.992598 0.0) // 133
    (0.632742 0.109394 0.0) // 134
    (-0.23561 14.998149 0.0) // 135
    (0.306093 0.154161 4.215) // 136
    (-0.23561 14.998149 4.315) // 137
    (0.303749 0.092283 4.215) // 138
    (-0.23561 -14.998149 4.315) // 139
    (0.626654 -0.05134 0.0) // 140
    (-0.23561 -14.998149 0.0) // 141
    (0.572766 0.118778 0.0) // 142
    (-0.941858 14.970401 0.0) // 143
    (0.276706 0.158002 4.215) // 144
    (-0.941858 14.970401 4.315) // 145
    (0.274362 0.090576 4.215) // 146
    (-0.941858 -14.970401 4.315) // 147
    (0.566678 -0.056369 0.0) // 148
    (-0.941858 -14.970401 0.0) // 149
    (0.510934 0.127952 0.0) // 150
    (-1.646015 14.909414 0.0) // 151
    (0.246416 0.16175 4.215) // 152
    (-1.646015 14.909414 4.315) // 153
    (0.244114 0.088837 4.215) // 154
    (-1.646015 -14.909414 4.315) // 155
    (0.504958 -0.061446 0.0) // 156
    (-1.646015 -14.909414 0.0) // 157
    (0.447487 0.136831 0.0) // 158
    (-2.346517 14.815325 0.0) // 159
    (0.215341 0.165366 4.215) // 160
    (-2.346517 14.815325 4.315) // 161
    (0.213127 0.087077 4.215) // 162
    (-2.346517 -14.815325 4.315) // 163
    (0.441737 -0.066534 0.0) // 164
    (-2.346517 -14.815325 0.0) // 165
    (0.382676 0.145325 0.0) // 166
    (-3.041809 14.688342 0.0) // 167
    (0.183603 0.168817 4.215) // 168
    (-3.041809 14.688342 4.315) // 169
    (0.181522 0.085311 4.215) // 170
    (-3.041809 -14.688342 4.315) // 171
    (0.377267 -0.071589 0.0) // 172
    (-3.041809 -14.688342 0.0) // 173
    (0.316753 0.153355 0.0) // 174
    (-3.730348 14.528747 0.0) // 175
    (0.151328 0.172068 4.215) // 176
    (-3.730348 14.528747 4.315) // 177
    (0.149423 0.083554 4.215) // 178
    (-3.730348 -14.528747 4.315) // 179
    (0.311805 -0.076567 0.0) // 180
    (-3.730348 -14.528747 0.0) // 181
    (0.249983 0.160834 0.0) // 182
    (-4.410605 14.336895 0.0) // 183
    (0.118642 0.175087 4.215) // 184
    (-4.410605 14.336895 4.315) // 185
    (0.116957 0.081826 4.215) // 186
    (-4.410605 -14.336895 4.315) // 187
    (0.245605 -0.081415 0.0) // 188
    (-4.410605 -14.336895 0.0) // 189
    (0.182633 0.167683 0.0) // 190
    (-5.081069 14.113212 0.0) // 191
    (0.085678 0.177838 4.215) // 192
    (-5.081069 14.113212 4.315) // 193
    (0.084252 0.080147 4.215) // 194
    (-5.081069 -14.113212 4.315) // 195
    (0.178928 -0.086076 0.0) // 196
    (-5.081069 -14.113212 0.0) // 197
    (0.114968 0.173823 0.0) // 198
    (-5.740251 13.858193 0.0) // 199
    (0.052565 0.180293 4.215) // 200
    (-5.740251 13.858193 4.315) // 201
    (0.051435 0.078541 4.215) // 202
    (-5.740251 -13.858193 4.315) // 203
    (0.112032 -0.090486 0.0) // 204
    (-5.740251 -13.858193 0.0) // 205
    (0.047264 0.179178 0.0) // 206
    (-6.386689 13.572406 0.0) // 207
    (0.019436 0.18242 4.215) // 208
    (-6.386689 13.572406 4.315) // 209
    (0.018633 0.077031 4.215) // 210
    (-6.386689 -13.572406 4.315) // 211
    (0.045177 -0.094579 0.0) // 212
    (-6.386689 -13.572406 0.0) // 213
    (-0.02021 0.183677 0.0) // 214
    (-7.018947 13.256484 0.0) // 215
    (-0.013575 0.184194 4.215) // 216
    (-7.018947 13.256484 4.315) // 217
    (-0.014025 0.075645 4.215) // 218
    (-7.018947 -13.256484 4.315) // 219
    (-0.02138 -0.098289 0.0) // 220
    (-7.018947 -13.256484 0.0) // 221
    (-0.087177 0.187251 0.0) // 222
    (-7.635621 12.91113 0.0) // 223
    (-0.046337 0.185587 4.215) // 224
    (-7.635621 12.91113 4.315) // 225
    (-0.046414 0.074409 4.215) // 226
    (-7.635621 -12.91113 4.315) // 227
    (-0.087381 -0.101542 0.0) // 228
    (-7.635621 -12.91113 0.0) // 229
    (-0.153867 0.189754 0.0) // 230
    (-8.235342 12.53711 0.0) // 231
    (-0.078907 0.186534 4.215) // 232
    (-8.235342 12.53711 4.315) // 233
    (-0.078218 0.073311 4.215) // 234
    (-8.235342 -12.53711 4.315) // 235
    (-0.152076 -0.104351 0.0) // 236
    (-8.235342 -12.53711 0.0) // 237
    (-0.21964 0.190952 0.0) // 238
    (-8.816779 12.135255 0.0) // 239
    (-0.111015 0.186928 4.215) // 240
    (-8.816779 12.135255 4.315) // 241
    (-0.109453 0.072292 4.215) // 242
    (-8.816779 -12.135255 4.315) // 243
    (-0.215583 -0.106824 0.0) // 244
    (-8.816779 -12.135255 0.0) // 245
    (-0.284095 0.190813 0.0) // 246
    (-9.37864 11.706456 0.0) // 247
    (-0.142478 0.186759 4.215) // 248
    (-9.37864 11.706456 4.315) // 249
    (-0.140053 0.071386 4.215) // 250
    (-9.37864 -11.706456 4.315) // 251
    (-0.277797 -0.108877 0.0) // 252
    (-9.37864 -11.706456 0.0) // 253
    (-0.346951 0.189325 0.0) // 254
    (-9.919678 11.251666 0.0) // 255
    (-0.173163 0.186027 4.215) // 256
    (-9.919678 11.251666 4.315) // 257
    (-0.169906 0.070628 4.215) // 258
    (-9.919678 -11.251666 4.315) // 259
    (-0.338493 -0.110433 0.0) // 260
    (-9.919678 -11.251666 0.0) // 261
    (-0.407945 0.186495 0.0) // 262
    (-10.438692 10.771894 0.0) // 263
    (-0.20294 0.184738 4.215) // 264
    (-10.438692 10.771894 4.315) // 265
    (-0.198901 0.070052 4.215) // 266
    (-10.438692 -10.771894 4.315) // 267
    (-0.397453 -0.111408 0.0) // 268
    (-10.438692 -10.771894 0.0) // 269
    (-0.466812 0.182344 0.0) // 270
    (-10.934529 10.268207 0.0) // 271
    (-0.231685 0.182905 4.215) // 272
    (-10.934529 10.268207 4.315) // 273
    (-0.226932 0.069694 4.215) // 274
    (-10.934529 -10.268207 4.315) // 275
    (-0.454466 -0.11173 0.0) // 276
    (-10.934529 -10.268207 0.0) // 277
    (-0.523299 0.176909 0.0) // 278
    (-11.406089 9.741721 0.0) // 279
    (-0.259277 0.180548 4.215) // 280
    (-11.406089 9.741721 4.315) // 281
    (-0.253898 0.069583 4.215) // 282
    (-11.406089 -9.741721 4.315) // 283
    (-0.509327 -0.111331 0.0) // 284
    (-11.406089 -9.741721 0.0) // 285
    (-0.577165 0.170244 0.0) // 286
    (-11.852325 9.193606 0.0) // 287
    (-0.285599 0.177694 4.215) // 288
    (-11.852325 9.193606 4.315) // 289
    (-0.279696 0.069749 4.215) // 290
    (-11.852325 -9.193606 4.315) // 291
    (-0.561834 -0.11015 0.0) // 292
    (-11.852325 -9.193606 0.0) // 293
    (-0.628186 0.162414 0.0) // 294
    (-12.272246 8.625079 0.0) // 295
    (-0.310542 0.174374 4.215) // 296
    (-12.272246 8.625079 4.315) // 297
    (-0.304232 0.070218 4.215) // 298
    (-12.272246 -8.625079 4.315) // 299
    (-0.611798 -0.10814 0.0) // 300
    (-12.272246 -8.625079 0.0) // 301
    (-0.676144 0.153503 0.0) // 302
    (-12.664919 8.037402 0.0) // 303
    (-0.334002 0.170628 4.215) // 304
    (-12.664919 8.037402 4.315) // 305
    (-0.327415 0.07101 4.215) // 306
    (-12.664919 -8.037402 4.315) // 307
    (-0.659034 -0.10526 0.0) // 308
    (-12.664919 -8.037402 0.0) // 309
    (-0.720845 0.143605 0.0) // 310
    (-13.029473 7.43188 0.0) // 311
    (-0.355884 0.166495 4.215) // 312
    (-13.029473 7.43188 4.315) // 313
    (-0.349156 0.072145 4.215) // 314
    (-13.029473 -7.43188 4.315) // 315
    (-0.703367 -0.101477 0.0) // 316
    (-13.029473 -7.43188 0.0) // 317
    (-0.762102 0.132819 0.0) // 318
    (-13.365098 6.809857 0.0) // 319
    (-0.376099 0.162024 4.215) // 320
    (-13.365098 6.809857 4.315) // 321
    (-0.369369 0.073636 4.215) // 322
    (-13.365098 -6.809857 4.315) // 323
    (-0.744621 -0.096776 0.0) // 324
    (-13.365098 -6.809857 0.0) // 325
    (-0.79975 0.121257 0.0) // 326
    (-13.671049 6.172715 0.0) // 327
    (-0.394565 0.157262 4.215) // 328
    (-13.671049 6.172715 4.315) // 329
    (-0.387979 0.075493 4.215) // 330
    (-13.671049 -6.172715 4.315) // 331
    (-0.782645 -0.091144 0.0) // 332
    (-13.671049 -6.172715 0.0) // 333
    (-0.833646 0.109036 0.0) // 334
    (-13.946647 5.521868 0.0) // 335
    (-0.411212 0.15226 4.215) // 336
    (-13.946647 5.521868 4.315) // 337
    (-0.404911 0.077724 4.215) // 338
    (-13.946647 -5.521868 4.315) // 339
    (-0.817278 -0.084578 0.0) // 340
    (-13.946647 -5.521868 0.0) // 341
    (-0.863659 0.096268 0.0) // 342
    (-14.19128 4.858761 0.0) // 343
    (-0.425974 0.147068 4.215) // 344
    (-14.19128 4.858761 4.315) // 345
    (-0.420095 0.080331 4.215) // 346
    (-14.19128 -4.858761 4.315) // 347
    (-0.848386 -0.077086 0.0) // 348
    (-14.19128 -4.858761 0.0) // 349
    (-0.889677 0.083067 0.0) // 350
    (-14.404405 4.184867 0.0) // 351
    (-0.438797 0.141734 4.215) // 352
    (-14.404405 4.184867 4.315) // 353
    (-0.433469 0.083316 4.215) // 354
    (-14.404405 -4.184867 4.315) // 355
    (-0.875835 -0.068679 0.0) // 356
    (-14.404405 -4.184867 0.0) // 357
    (-0.911608 0.069538 0.0) // 358
    (-14.585549 3.50168 0.0) // 359
    (-0.449634 0.136304 4.215) // 360
    (-14.585549 3.50168 4.315) // 361
    (-0.444975 0.086678 4.215) // 362
    (-14.585549 -3.50168 4.315) // 363
    (-0.899507 -0.05937 0.0) // 364
    (-14.585549 -3.50168 0.0) // 365
    (-0.929378 0.055782 0.0) // 366
    (-14.734309 2.81072 0.0) // 367
    (-0.458447 0.130821 4.215) // 368
    (-14.734309 2.81072 4.315) // 369
    (-0.454565 0.090413 4.215) // 370
    (-14.734309 -2.81072 4.315) // 371
    (-0.919295 -0.049182 0.0) // 372
    (-14.734309 -2.81072 0.0) // 373
    (-0.942933 0.041885 0.0) // 374
    (-14.850355 2.113518 0.0) // 375
    (-0.465207 0.125321 4.215) // 376
    (-14.850355 2.113518 4.315) // 377
    (-0.462194 0.094517 4.215) // 378
    (-14.850355 -2.113518 4.315) // 379
    (-0.935108 -0.03813 0.0) // 380
    (-14.850355 -2.113518 0.0) // 381
    (-0.952233 0.027921 0.0) // 382
    (-14.933429 1.411625 0.0) // 383
    (-0.469892 0.119837 4.215) // 384
    (-14.933429 1.411625 4.315) // 385
    (-0.467828 0.098987 4.215) // 386
    (-14.933429 -1.411625 4.315) // 387
    (-0.946869 -0.026239 0.0) // 388
    (-14.933429 -1.411625 0.0) // 389
    (-0.957256 0.013947 0.0) // 390
    (-14.983348 0.706597 0.0) // 391
    (-0.472492 0.114391 4.215) // 392
    (-14.983348 0.706597 4.315) // 393
    (-0.471437 0.103816 4.215) // 394
    (-14.983348 -0.706597 4.315) // 395
    (-0.954515 -0.013522 0.0) // 396
    (-14.983348 -0.706597 0.0) // 397
    (-0.958 0.0 0.0) // 398
    (-15.0 0.0 0.0) // 399
    (-0.473 0.109 4.215) // 400
    (-15.0 0.0 4.315) // 401
    (11.277597 9.890187 0.0) // 402
    (11.277597 9.890187 4.315) // 403
    (11.277597 -9.890187 4.315) // 404
    (11.277597 -9.890187 0.0) // 405
    (11.9003 9.131421 0.0) // 406
    (11.9003 9.131421 4.315) // 407
    (11.9003 -9.131421 4.315) // 408
    (11.9003 -9.131421 0.0) // 409
    (12.472044 8.333553 0.0) // 410
    (12.472044 8.333553 4.315) // 411
    (12.472044 -8.333553 4.315) // 412
    (12.472044 -8.333553 0.0) // 413
    (12.990381 7.5 0.0) // 414
    (12.990381 7.5 4.315) // 415
    (12.990381 -7.5 4.315) // 416
    (12.990381 -7.5 0.0) // 417
    (13.453091 6.63433 0.0) // 418
    (13.453091 6.63433 4.315) // 419
    (13.453091 -6.63433 4.315) // 420
    (13.453091 -6.63433 0.0) // 421
    (13.858193 5.740251 0.0) // 422
    (13.858193 5.740251 4.315) // 423
    (13.858193 -5.740251 4.315) // 424
    (13.858193 -5.740251 0.0) // 425
    (14.203952 4.821592 0.0) // 426
    (14.203952 4.821592 4.315) // 427
    (14.203952 -4.821592 4.315) // 428
    (14.203952 -4.821592 0.0) // 429
    (14.488887 3.882286 0.0) // 430
    (14.488887 3.882286 4.315) // 431
    (14.488887 -3.882286 4.315) // 432
    (14.488887 -3.882286 0.0) // 433
    (14.711779 2.926355 0.0) // 434
    (14.711779 2.926355 4.315) // 435
    (14.711779 -2.926355 4.315) // 436
    (14.711779 -2.926355 0.0) // 437
    (14.871673 1.957893 0.0) // 438
    (14.871673 1.957893 4.315) // 439
    (14.871673 -1.957893 4.315) // 440
    (14.871673 -1.957893 0.0) // 441
    (14.967884 0.981047 0.0) // 442
    (14.967884 0.981047 4.315) // 443
    (14.967884 -0.981047 4.315) // 444
    (14.967884 -0.981047 0.0) // 445
    (15.0 0.0 0.0) // 446
    (15.0 0.0 4.315) // 447
);

blocks
(
  hex ( 0 1 2 3 4 5 6 7 ) (1 20 15) simpleGrading (1 1000 1) // 0 
  hex ( 8 5 9 10 11 1 12 13 ) (1 20 15) simpleGrading (1 1000 1) // 1 
  hex ( 14 0 3 15 16 4 7 17 ) (1 20 15) simpleGrading (1 1000 1) // 2 
  hex ( 18 8 10 19 20 11 13 21 ) (1 20 15) simpleGrading (1 1000 1) // 3 
  hex ( 22 14 15 23 24 16 17 25 ) (1 20 15) simpleGrading (1 1000 1) // 4 
  hex ( 26 18 19 27 28 20 21 29 ) (1 20 15) simpleGrading (1 1000 1) // 5 
  hex ( 30 22 23 31 32 24 25 33 ) (1 20 15) simpleGrading (1 1000 1) // 6 
  hex ( 34 26 27 35 36 28 29 37 ) (1 20 15) simpleGrading (1 1000 1) // 7 
  hex ( 38 30 31 39 40 32 33 41 ) (1 20 15) simpleGrading (1 1000 1) // 8 
  hex ( 42 34 35 43 44 36 37 45 ) (1 20 15) simpleGrading (1 1000 1) // 9 
  hex ( 46 38 39 47 48 40 41 49 ) (1 20 15) simpleGrading (1 1000 1) // 10 
  hex ( 50 42 43 51 52 44 45 53 ) (1 20 15) simpleGrading (1 1000 1) // 11 
  hex ( 54 46 47 55 56 48 49 57 ) (1 20 15) simpleGrading (1 1000 1) // 12 
  hex ( 58 50 51 59 60 52 53 61 ) (1 20 15) simpleGrading (1 1000 1) // 13 
  hex ( 62 54 55 63 64 56 57 65 ) (1 20 15) simpleGrading (1 1000 1) // 14 
  hex ( 66 58 59 67 68 60 61 69 ) (1 20 15) simpleGrading (1 1000 1) // 15 
  hex ( 70 62 63 71 72 64 65 73 ) (1 20 15) simpleGrading (1 1000 1) // 16 
  hex ( 74 66 67 75 76 68 69 77 ) (1 20 15) simpleGrading (1 1000 1) // 17 
  hex ( 78 70 71 79 80 72 73 81 ) (1 20 15) simpleGrading (1 1000 1) // 18 
  hex ( 82 74 75 83 84 76 77 85 ) (1 20 15) simpleGrading (1 1000 1) // 19 
  hex ( 86 78 79 87 88 80 81 89 ) (1 20 15) simpleGrading (1 1000 1) // 20 
  hex ( 90 82 83 91 92 84 85 93 ) (1 20 15) simpleGrading (1 1000 1) // 21 
  hex ( 94 86 87 95 96 88 89 97 ) (1 20 15) simpleGrading (1 1000 1) // 22 
  hex ( 98 90 91 99 100 92 93 101 ) (1 20 15) simpleGrading (1 1000 1) // 23 
  hex ( 102 94 95 103 104 96 97 105 ) (1 20 15) simpleGrading (1 1000 1) // 24 
  hex ( 106 98 99 107 108 100 101 109 ) (1 20 15) simpleGrading (1 1000 1) // 25 
  hex ( 110 102 103 111 112 104 105 113 ) (1 20 15) simpleGrading (1 1000 1) // 26 
  hex ( 114 106 107 115 116 108 109 117 ) (1 20 15) simpleGrading (1 1000 1) // 27 
  hex ( 118 110 111 119 120 112 113 121 ) (1 20 15) simpleGrading (1 1000 1) // 28 
  hex ( 122 114 115 123 124 116 117 125 ) (1 20 15) simpleGrading (1 1000 1) // 29 
  hex ( 126 118 119 127 128 120 121 129 ) (1 20 15) simpleGrading (1 1000 1) // 30 
  hex ( 130 122 123 131 132 124 125 133 ) (1 20 15) simpleGrading (1 1000 1) // 31 
  hex ( 134 126 127 135 136 128 129 137 ) (1 20 15) simpleGrading (1 1000 1) // 32 
  hex ( 138 130 131 139 140 132 133 141 ) (1 20 15) simpleGrading (1 1000 1) // 33 
  hex ( 142 134 135 143 144 136 137 145 ) (1 20 15) simpleGrading (1 1000 1) // 34 
  hex ( 146 138 139 147 148 140 141 149 ) (1 20 15) simpleGrading (1 1000 1) // 35 
  hex ( 150 142 143 151 152 144 145 153 ) (1 20 15) simpleGrading (1 1000 1) // 36 
  hex ( 154 146 147 155 156 148 149 157 ) (1 20 15) simpleGrading (1 1000 1) // 37 
  hex ( 158 150 151 159 160 152 153 161 ) (1 20 15) simpleGrading (1 1000 1) // 38 
  hex ( 162 154 155 163 164 156 157 165 ) (1 20 15) simpleGrading (1 1000 1) // 39 
  hex ( 166 158 159 167 168 160 161 169 ) (1 20 15) simpleGrading (1 1000 1) // 40 
  hex ( 170 162 163 171 172 164 165 173 ) (1 20 15) simpleGrading (1 1000 1) // 41 
  hex ( 174 166 167 175 176 168 169 177 ) (1 20 15) simpleGrading (1 1000 1) // 42 
  hex ( 178 170 171 179 180 172 173 181 ) (1 20 15) simpleGrading (1 1000 1) // 43 
  hex ( 182 174 175 183 184 176 177 185 ) (1 20 15) simpleGrading (1 1000 1) // 44 
  hex ( 186 178 179 187 188 180 181 189 ) (1 20 15) simpleGrading (1 1000 1) // 45 
  hex ( 190 182 183 191 192 184 185 193 ) (1 20 15) simpleGrading (1 1000 1) // 46 
  hex ( 194 186 187 195 196 188 189 197 ) (1 20 15) simpleGrading (1 1000 1) // 47 
  hex ( 198 190 191 199 200 192 193 201 ) (1 20 15) simpleGrading (1 1000 1) // 48 
  hex ( 202 194 195 203 204 196 197 205 ) (1 20 15) simpleGrading (1 1000 1) // 49 
  hex ( 206 198 199 207 208 200 201 209 ) (1 20 15) simpleGrading (1 1000 1) // 50 
  hex ( 210 202 203 211 212 204 205 213 ) (1 20 15) simpleGrading (1 1000 1) // 51 
  hex ( 214 206 207 215 216 208 209 217 ) (1 20 15) simpleGrading (1 1000 1) // 52 
  hex ( 218 210 211 219 220 212 213 221 ) (1 20 15) simpleGrading (1 1000 1) // 53 
  hex ( 222 214 215 223 224 216 217 225 ) (1 20 15) simpleGrading (1 1000 1) // 54 
  hex ( 226 218 219 227 228 220 221 229 ) (1 20 15) simpleGrading (1 1000 1) // 55 
  hex ( 230 222 223 231 232 224 225 233 ) (1 20 15) simpleGrading (1 1000 1) // 56 
  hex ( 234 226 227 235 236 228 229 237 ) (1 20 15) simpleGrading (1 1000 1) // 57 
  hex ( 238 230 231 239 240 232 233 241 ) (1 20 15) simpleGrading (1 1000 1) // 58 
  hex ( 242 234 235 243 244 236 237 245 ) (1 20 15) simpleGrading (1 1000 1) // 59 
  hex ( 246 238 239 247 248 240 241 249 ) (1 20 15) simpleGrading (1 1000 1) // 60 
  hex ( 250 242 243 251 252 244 245 253 ) (1 20 15) simpleGrading (1 1000 1) // 61 
  hex ( 254 246 247 255 256 248 249 257 ) (1 20 15) simpleGrading (1 1000 1) // 62 
  hex ( 258 250 251 259 260 252 253 261 ) (1 20 15) simpleGrading (1 1000 1) // 63 
  hex ( 262 254 255 263 264 256 257 265 ) (1 20 15) simpleGrading (1 1000 1) // 64 
  hex ( 266 258 259 267 268 260 261 269 ) (1 20 15) simpleGrading (1 1000 1) // 65 
  hex ( 270 262 263 271 272 264 265 273 ) (1 20 15) simpleGrading (1 1000 1) // 66 
  hex ( 274 266 267 275 276 268 269 277 ) (1 20 15) simpleGrading (1 1000 1) // 67 
  hex ( 278 270 271 279 280 272 273 281 ) (1 20 15) simpleGrading (1 1000 1) // 68 
  hex ( 282 274 275 283 284 276 277 285 ) (1 20 15) simpleGrading (1 1000 1) // 69 
  hex ( 286 278 279 287 288 280 281 289 ) (1 20 15) simpleGrading (1 1000 1) // 70 
  hex ( 290 282 283 291 292 284 285 293 ) (1 20 15) simpleGrading (1 1000 1) // 71 
  hex ( 294 286 287 295 296 288 289 297 ) (1 20 15) simpleGrading (1 1000 1) // 72 
  hex ( 298 290 291 299 300 292 293 301 ) (1 20 15) simpleGrading (1 1000 1) // 73 
  hex ( 302 294 295 303 304 296 297 305 ) (1 20 15) simpleGrading (1 1000 1) // 74 
  hex ( 306 298 299 307 308 300 301 309 ) (1 20 15) simpleGrading (1 1000 1) // 75 
  hex ( 310 302 303 311 312 304 305 313 ) (1 20 15) simpleGrading (1 1000 1) // 76 
  hex ( 314 306 307 315 316 308 309 317 ) (1 20 15) simpleGrading (1 1000 1) // 77 
  hex ( 318 310 311 319 320 312 313 321 ) (1 20 15) simpleGrading (1 1000 1) // 78 
  hex ( 322 314 315 323 324 316 317 325 ) (1 20 15) simpleGrading (1 1000 1) // 79 
  hex ( 326 318 319 327 328 320 321 329 ) (1 20 15) simpleGrading (1 1000 1) // 80 
  hex ( 330 322 323 331 332 324 325 333 ) (1 20 15) simpleGrading (1 1000 1) // 81 
  hex ( 334 326 327 335 336 328 329 337 ) (1 20 15) simpleGrading (1 1000 1) // 82 
  hex ( 338 330 331 339 340 332 333 341 ) (1 20 15) simpleGrading (1 1000 1) // 83 
  hex ( 342 334 335 343 344 336 337 345 ) (1 20 15) simpleGrading (1 1000 1) // 84 
  hex ( 346 338 339 347 348 340 341 349 ) (1 20 15) simpleGrading (1 1000 1) // 85 
  hex ( 350 342 343 351 352 344 345 353 ) (1 20 15) simpleGrading (1 1000 1) // 86 
  hex ( 354 346 347 355 356 348 349 357 ) (1 20 15) simpleGrading (1 1000 1) // 87 
  hex ( 358 350 351 359 360 352 353 361 ) (1 20 15) simpleGrading (1 1000 1) // 88 
  hex ( 362 354 355 363 364 356 357 365 ) (1 20 15) simpleGrading (1 1000 1) // 89 
  hex ( 366 358 359 367 368 360 361 369 ) (1 20 15) simpleGrading (1 1000 1) // 90 
  hex ( 370 362 363 371 372 364 365 373 ) (1 20 15) simpleGrading (1 1000 1) // 91 
  hex ( 374 366 367 375 376 368 369 377 ) (1 20 15) simpleGrading (1 1000 1) // 92 
  hex ( 378 370 371 379 380 372 373 381 ) (1 20 15) simpleGrading (1 1000 1) // 93 
  hex ( 382 374 375 383 384 376 377 385 ) (1 20 15) simpleGrading (1 1000 1) // 94 
  hex ( 386 378 379 387 388 380 381 389 ) (1 20 15) simpleGrading (1 1000 1) // 95 
  hex ( 390 382 383 391 392 384 385 393 ) (1 20 15) simpleGrading (1 1000 1) // 96 
  hex ( 394 386 387 395 396 388 389 397 ) (1 20 15) simpleGrading (1 1000 1) // 97 
  hex ( 398 390 391 399 400 392 393 401 ) (1 20 15) simpleGrading (1 1000 1) // 98 
  hex ( 400 394 395 401 398 396 397 399 ) (1 20 15) simpleGrading (1 1000 1) // 99 
  hex ( 1 1 402 2 5 5 403 6 ) (1 20 15) simpleGrading (1 1000 1) // 100 
  hex ( 5 5 404 9 1 1 405 12 ) (1 20 15) simpleGrading (1 1000 1) // 101 
  hex ( 1 1 406 402 5 5 407 403 ) (1 20 15) simpleGrading (1 1000 1) // 102 
  hex ( 5 5 408 404 1 1 409 405 ) (1 20 15) simpleGrading (1 1000 1) // 103 
  hex ( 1 1 410 406 5 5 411 407 ) (1 20 15) simpleGrading (1 1000 1) // 104 
  hex ( 5 5 412 408 1 1 413 409 ) (1 20 15) simpleGrading (1 1000 1) // 105 
  hex ( 1 1 414 410 5 5 415 411 ) (1 20 15) simpleGrading (1 1000 1) // 106 
  hex ( 5 5 416 412 1 1 417 413 ) (1 20 15) simpleGrading (1 1000 1) // 107 
  hex ( 1 1 418 414 5 5 419 415 ) (1 20 15) simpleGrading (1 1000 1) // 108 
  hex ( 5 5 420 416 1 1 421 417 ) (1 20 15) simpleGrading (1 1000 1) // 109 
  hex ( 1 1 422 418 5 5 423 419 ) (1 20 15) simpleGrading (1 1000 1) // 110 
  hex ( 5 5 424 420 1 1 425 421 ) (1 20 15) simpleGrading (1 1000 1) // 111 
  hex ( 1 1 426 422 5 5 427 423 ) (1 20 15) simpleGrading (1 1000 1) // 112 
  hex ( 5 5 428 424 1 1 429 425 ) (1 20 15) simpleGrading (1 1000 1) // 113 
  hex ( 1 1 430 426 5 5 431 427 ) (1 20 15) simpleGrading (1 1000 1) // 114 
  hex ( 5 5 432 428 1 1 433 429 ) (1 20 15) simpleGrading (1 1000 1) // 115 
  hex ( 1 1 434 430 5 5 435 431 ) (1 20 15) simpleGrading (1 1000 1) // 116 
  hex ( 5 5 436 432 1 1 437 433 ) (1 20 15) simpleGrading (1 1000 1) // 117 
  hex ( 1 1 438 434 5 5 439 435 ) (1 20 15) simpleGrading (1 1000 1) // 118 
  hex ( 5 5 440 436 1 1 441 437 ) (1 20 15) simpleGrading (1 1000 1) // 119 
  hex ( 1 1 442 438 5 5 443 439 ) (1 20 15) simpleGrading (1 1000 1) // 120 
  hex ( 5 5 444 440 1 1 445 441 ) (1 20 15) simpleGrading (1 1000 1) // 121 
  hex ( 1 1 446 442 5 5 447 443 ) (1 20 15) simpleGrading (1 1000 1) // 122 
  hex ( 5 5 447 444 1 1 446 445 ) (1 20 15) simpleGrading (1 1000 1) // 123 
  hex ( 4 5 6 7 8 5 9 10 ) (1 20 20) simpleGrading (1 1000 1) // 124 
  hex ( 16 4 7 17 18 8 10 19 ) (1 20 20) simpleGrading (1 1000 1) // 125 
  hex ( 24 16 17 25 26 18 19 27 ) (1 20 20) simpleGrading (1 1000 1) // 126 
  hex ( 32 24 25 33 34 26 27 35 ) (1 20 20) simpleGrading (1 1000 1) // 127 
  hex ( 40 32 33 41 42 34 35 43 ) (1 20 20) simpleGrading (1 1000 1) // 128 
  hex ( 48 40 41 49 50 42 43 51 ) (1 20 20) simpleGrading (1 1000 1) // 129 
  hex ( 56 48 49 57 58 50 51 59 ) (1 20 20) simpleGrading (1 1000 1) // 130 
  hex ( 64 56 57 65 66 58 59 67 ) (1 20 20) simpleGrading (1 1000 1) // 131 
  hex ( 72 64 65 73 74 66 67 75 ) (1 20 20) simpleGrading (1 1000 1) // 132 
  hex ( 80 72 73 81 82 74 75 83 ) (1 20 20) simpleGrading (1 1000 1) // 133 
  hex ( 88 80 81 89 90 82 83 91 ) (1 20 20) simpleGrading (1 1000 1) // 134 
  hex ( 96 88 89 97 98 90 91 99 ) (1 20 20) simpleGrading (1 1000 1) // 135 
  hex ( 104 96 97 105 106 98 99 107 ) (1 20 20) simpleGrading (1 1000 1) // 136 
  hex ( 112 104 105 113 114 106 107 115 ) (1 20 20) simpleGrading (1 1000 1) // 137 
  hex ( 120 112 113 121 122 114 115 123 ) (1 20 20) simpleGrading (1 1000 1) // 138 
  hex ( 128 120 121 129 130 122 123 131 ) (1 20 20) simpleGrading (1 1000 1) // 139 
  hex ( 136 128 129 137 138 130 131 139 ) (1 20 20) simpleGrading (1 1000 1) // 140 
  hex ( 144 136 137 145 146 138 139 147 ) (1 20 20) simpleGrading (1 1000 1) // 141 
  hex ( 152 144 145 153 154 146 147 155 ) (1 20 20) simpleGrading (1 1000 1) // 142 
  hex ( 160 152 153 161 162 154 155 163 ) (1 20 20) simpleGrading (1 1000 1) // 143 
  hex ( 168 160 161 169 170 162 163 171 ) (1 20 20) simpleGrading (1 1000 1) // 144 
  hex ( 176 168 169 177 178 170 171 179 ) (1 20 20) simpleGrading (1 1000 1) // 145 
  hex ( 184 176 177 185 186 178 179 187 ) (1 20 20) simpleGrading (1 1000 1) // 146 
  hex ( 192 184 185 193 194 186 187 195 ) (1 20 20) simpleGrading (1 1000 1) // 147 
  hex ( 200 192 193 201 202 194 195 203 ) (1 20 20) simpleGrading (1 1000 1) // 148 
  hex ( 208 200 201 209 210 202 203 211 ) (1 20 20) simpleGrading (1 1000 1) // 149 
  hex ( 216 208 209 217 218 210 211 219 ) (1 20 20) simpleGrading (1 1000 1) // 150 
  hex ( 224 216 217 225 226 218 219 227 ) (1 20 20) simpleGrading (1 1000 1) // 151 
  hex ( 232 224 225 233 234 226 227 235 ) (1 20 20) simpleGrading (1 1000 1) // 152 
  hex ( 240 232 233 241 242 234 235 243 ) (1 20 20) simpleGrading (1 1000 1) // 153 
  hex ( 248 240 241 249 250 242 243 251 ) (1 20 20) simpleGrading (1 1000 1) // 154 
  hex ( 256 248 249 257 258 250 251 259 ) (1 20 20) simpleGrading (1 1000 1) // 155 
  hex ( 264 256 257 265 266 258 259 267 ) (1 20 20) simpleGrading (1 1000 1) // 156 
  hex ( 272 264 265 273 274 266 267 275 ) (1 20 20) simpleGrading (1 1000 1) // 157 
  hex ( 280 272 273 281 282 274 275 283 ) (1 20 20) simpleGrading (1 1000 1) // 158 
  hex ( 288 280 281 289 290 282 283 291 ) (1 20 20) simpleGrading (1 1000 1) // 159 
  hex ( 296 288 289 297 298 290 291 299 ) (1 20 20) simpleGrading (1 1000 1) // 160 
  hex ( 304 296 297 305 306 298 299 307 ) (1 20 20) simpleGrading (1 1000 1) // 161 
  hex ( 312 304 305 313 314 306 307 315 ) (1 20 20) simpleGrading (1 1000 1) // 162 
  hex ( 320 312 313 321 322 314 315 323 ) (1 20 20) simpleGrading (1 1000 1) // 163 