FoamFile
{
    version     2.0;
format      ascii;
class       dictionary;
object      blockMeshDict;
}
convertToMeters 1;

vertices
(
    (1.185 0.0 0.0) // 0
    (1.182908 0.000499 0.0) // 1
    (0.844744 0.06139 2.360136) // 2
    (0.8462 0.06104 2.3604) // 3
    (1.185 3.0 0.0) // 4
    (1.182908 3.0 0.0) // 5
    (0.844744 3.0 2.360136) // 6
    (0.8462 3.0 2.3604) // 7
    (1.182861 -0.000216 0.0) // 8
    (0.844711 0.060878 2.36013) // 9
    (1.182861 -3.0 0.0) // 10
    (1.185 -3.0 0.0) // 11
    (0.8462 -3.0 2.3604) // 12
    (0.844711 -3.0 2.36013) // 13
    (3.0 0.06104 2.3604) // 14
    (3.0 0.0 0.0) // 15
    (3.0 3.0 2.3604) // 16
    (3.0 3.0 0.0) // 17
    (3.0 -3.0 2.3604) // 18
    (3.0 -3.0 0.0) // 19
    (1.176644 0.001987 0.0) // 20
    (0.840381 0.062432 2.359346) // 21
    (1.176644 3.0 0.0) // 22
    (0.840381 3.0 2.359346) // 23
    (1.176456 -0.000864 0.0) // 24
    (0.84025 0.060395 2.359323) // 25
    (1.176456 -3.0 0.0) // 26
    (0.84025 -3.0 2.359323) // 27
    (1.166229 0.004449 0.0) // 28
    (0.833125 0.064158 2.358033) // 29
    (1.166229 3.0 0.0) // 30
    (0.833125 3.0 2.358033) // 31
    (1.165812 -0.001937 0.0) // 32
    (0.832834 0.059593 2.357981) // 33
    (1.165812 -3.0 0.0) // 34
    (0.832834 -3.0 2.357981) // 35
    (1.151702 0.007854 0.0) // 36
    (0.822998 0.066546 2.356202) // 37
    (1.151702 3.0 0.0) // 38
    (0.822998 3.0 2.356202) // 39
    (1.150971 -0.003425 0.0) // 40
    (0.822489 0.058481 2.35611) // 41
    (1.150971 -3.0 0.0) // 42
    (0.822489 -3.0 2.35611) // 43
    (1.133116 0.012162 0.0) // 44
    (0.810033 0.069568 2.353858) // 45
    (1.133116 3.0 0.0) // 46
    (0.810033 3.0 2.353858) // 47
    (1.131999 -0.00531 0.0) // 48
    (0.809254 0.057069 2.353717) // 49
    (1.131999 -3.0 0.0) // 50
    (0.809254 -3.0 2.353717) // 51
    (1.110537 0.01732 0.0) // 52
    (0.794268 0.07319 2.351011) // 53
    (1.110537 3.0 0.0) // 54
    (0.794268 3.0 2.351011) // 55
    (1.108975 -0.007582 0.0) // 56
    (0.793177 0.055367 2.350814) // 57
    (1.108975 -3.0 0.0) // 58
    (0.793177 -3.0 2.350814) // 59
    (1.08405 0.023273 0.0) // 60
    (0.775754 0.077372 2.347672) // 61
    (1.08405 3.0 0.0) // 62
    (0.775754 3.0 2.347672) // 63
    (1.081995 -0.010216 0.0) // 64
    (0.774317 0.05339 2.347413) // 65
    (1.081995 -3.0 0.0) // 66
    (0.774317 -3.0 2.347413) // 67
    (1.053752 0.029951 0.0) // 68
    (0.754551 0.082068 2.343852) // 69
    (1.053752 3.0 0.0) // 70
    (0.754551 3.0 2.343852) // 71
    (1.051172 -0.01319 0.0) // 72
    (0.752744 0.051154 2.343526) // 73
    (1.051172 -3.0 0.0) // 74
    (0.752744 -3.0 2.343526) // 75
    (1.019758 0.037282 0.0) // 76
    (0.730728 0.087229 2.339565) // 77
    (1.019758 3.0 0.0) // 78
    (0.730728 3.0 2.339565) // 79
    (1.016637 -0.016484 0.0) // 80
    (0.728539 0.048673 2.339172) // 81
    (1.016637 -3.0 0.0) // 82
    (0.728539 -3.0 2.339172) // 83
    (0.982191 0.045185 0.0) // 84
    (0.70436 0.092798 2.334829) // 85
    (0.982191 3.0 0.0) // 86
    (0.70436 3.0 2.334829) // 87
    (0.978533 -0.020071 0.0) // 88
    (0.70179 0.045965 2.334368) // 89
    (0.978533 -3.0 0.0) // 90
    (0.70179 -3.0 2.334368) // 91
    (0.941195 0.053581 0.0) // 92
    (0.675536 0.098722 2.32966) // 93
    (0.941195 3.0 0.0) // 94
    (0.675536 3.0 2.32966) // 95
    (0.937016 -0.023929 0.0) // 96
    (0.672595 0.043047 2.329133) // 97
    (0.937016 -3.0 0.0) // 98
    (0.672595 -3.0 2.329133) // 99
    (0.896923 0.062381 0.0) // 100
    (0.64435 0.104938 2.324078) // 101
    (0.896923 3.0 0.0) // 102
    (0.64435 3.0 2.324078) // 103
    (0.892258 -0.028033 0.0) // 104
    (0.641061 0.039934 2.32349) // 105
    (0.892258 -3.0 0.0) // 106
    (0.641061 -3.0 2.32349) // 107
    (0.849543 0.071501 0.0) // 108
    (0.61091 0.111391 2.318104) // 109
    (0.849543 3.0 0.0) // 110
    (0.61091 3.0 2.318104) // 111
    (0.844441 -0.032357 0.0) // 112
    (0.607305 0.036646 2.317461) // 113
    (0.844441 -3.0 0.0) // 114
    (0.607305 -3.0 2.317461) // 115
    (0.799239 0.080851 0.0) // 116
    (0.57533 0.118017 2.311761) // 117
    (0.799239 3.0 0.0) // 118
    (0.57533 3.0 2.311761) // 119
    (0.793761 -0.036877 0.0) // 120
    (0.571451 0.0332 2.311071) // 121
    (0.793761 -3.0 0.0) // 122
    (0.571451 -3.0 2.311071) // 123
    (0.746199 0.09034 0.0) // 124
    (0.537732 0.124752 2.305074) // 125
    (0.746199 3.0 0.0) // 126
    (0.537732 3.0 2.305074) // 127
    (0.740426 -0.041563 0.0) // 128
    (0.533635 0.029616 2.304346) // 129
    (0.740426 -3.0 0.0) // 130
    (0.533635 -3.0 2.304346) // 131
    (0.690629 0.099885 0.0) // 132
    (0.498249 0.131538 2.298067) // 133
    (0.690629 3.0 0.0) // 134
    (0.498249 3.0 2.298067) // 135
    (0.684648 -0.046396 0.0) // 136
    (0.493993 0.02591 2.297313) // 137
    (0.684648 -3.0 0.0) // 138
    (0.493993 -3.0 2.297313) // 139
    (0.632742 0.109394 0.0) // 140
    (0.456851 0.138338 2.29296) // 141
    (0.632742 3.0 0.0) // 142
    (0.456851 3.0 2.29296) // 143
    (0.626654 -0.05134 0.0) // 144
    (0.452452 0.022201 2.29296) // 145
    (0.626654 -3.0 0.0) // 146
    (0.452452 -3.0 2.29296) // 147
    (0.572766 0.118778 0.0) // 148
    (0.413515 0.145118 2.29296) // 149
    (0.572766 3.0 0.0) // 150
    (0.413515 3.0 2.29296) // 151
    (0.566678 -0.056369 0.0) // 152
    (0.409116 0.018567 2.29296) // 153
    (0.566678 -3.0 0.0) // 154
    (0.409116 -3.0 2.29296) // 155
    (0.510934 0.127952 0.0) // 156
    (0.368839 0.151747 2.29296) // 157
    (0.510934 3.0 0.0) // 158
    (0.368839 3.0 2.29296) // 159
    (0.504958 -0.061446 0.0) // 160
    (0.364521 0.014898 2.29296) // 161
    (0.504958 -3.0 0.0) // 162
    (0.364521 -3.0 2.29296) // 163
    (0.447487 0.136831 0.0) // 164
    (0.322995 0.158162 2.29296) // 165
    (0.447487 3.0 0.0) // 166
    (0.322995 3.0 2.29296) // 167
    (0.441737 -0.066534 0.0) // 168
    (0.318841 0.011223 2.29296) // 169
    (0.441737 -3.0 0.0) // 170
    (0.318841 -3.0 2.29296) // 171
    (0.382676 0.145325 0.0) // 172
    (0.276167 0.1643 2.29296) // 173
    (0.382676 3.0 0.0) // 174
    (0.276167 3.0 2.29296) // 175
    (0.377267 -0.071589 0.0) // 176
    (0.272259 0.00757 2.29296) // 177
    (0.377267 -3.0 0.0) // 178
    (0.272259 -3.0 2.29296) // 179
    (0.316753 0.153355 0.0) // 180
    (0.228535 0.170102 2.29296) // 181
    (0.316753 3.0 0.0) // 182
    (0.228535 3.0 2.29296) // 183
    (0.311805 -0.076567 0.0) // 184
    (0.224959 0.003973 2.29296) // 185
    (0.311805 -3.0 0.0) // 186
    (0.224959 -3.0 2.29296) // 187
    (0.249983 0.160834 0.0) // 188
    (0.180291 0.175506 2.29296) // 189
    (0.249983 3.0 0.0) // 190
    (0.180291 3.0 2.29296) // 191
    (0.245605 -0.081415 0.0) // 192
    (0.177128 0.00047 2.29296) // 193
    (0.245605 -3.0 0.0) // 194
    (0.177128 -3.0 2.29296) // 195
    (0.182633 0.167683 0.0) // 196
    (0.131628 0.180454 2.29296) // 197
    (0.182633 3.0 0.0) // 198
    (0.131628 3.0 2.29296) // 199
    (0.178928 -0.086076 0.0) // 200
    (0.12895 -0.002897 2.29296) // 201
    (0.178928 -3.0 0.0) // 202
    (0.12895 -3.0 2.29296) // 203
    (0.114968 0.173823 0.0) // 204
    (0.082737 0.18489 2.29296) // 205
    (0.114968 3.0 0.0) // 206
    (0.082737 3.0 2.29296) // 207
    (0.112032 -0.090486 0.0) // 208
    (0.080615 -0.006084 2.29296) // 209
    (0.112032 -3.0 0.0) // 210
    (0.080615 -3.0 2.29296) // 211
    (0.047264 0.179178 0.0) // 212
    (0.033818 0.18876 2.29296) // 213
    (0.047264 3.0 0.0) // 214
    (0.033818 3.0 2.29296) // 215
    (0.045177 -0.094579 0.0) // 216
    (0.03231 -0.009041 2.29296) // 217
    (0.045177 -3.0 0.0) // 218
    (0.03231 -3.0 2.29296) // 219
    (-0.02021 0.183677 0.0) // 220
    (-0.014935 0.19201 2.29296) // 221
    (-0.0 3.0 0.0) // 222
    (-0.0 3.0 2.29296) // 223
    (-0.02138 -0.098289 0.0) // 224
    (-0.015781 -0.011722 2.29296) // 225
    (-0.0 -3.0 0.0) // 226
    (-0.0 -3.0 2.29296) // 227
    (-0.087177 0.187251 0.0) // 228
    (-0.063322 0.194593 2.29296) // 229
    (-0.204727 2.993006 0.0) // 230
    (-0.204727 2.993006 2.29296) // 231
    (-0.087381 -0.101542 0.0) // 232
    (-0.063469 -0.014072 2.29296) // 233
    (-0.204727 -2.993006 0.0) // 234
    (-0.204727 -2.993006 2.29296) // 235
    (-0.153867 0.189754 0.0) // 236
    (-0.111508 0.196401 2.29296) // 237
    (-0.4085 2.972058 0.0) // 238
    (-0.4085 2.972058 2.29296) // 239
    (-0.152076 -0.104351 0.0) // 240
    (-0.110214 -0.016102 2.29296) // 241
    (-0.4085 -2.972058 0.0) // 242
    (-0.4085 -2.972058 2.29296) // 243
    (-0.21964 0.190952 0.0) // 244
    (-0.159032 0.197267 2.29296) // 245
    (-0.610368 2.937252 0.0) // 246
    (-0.610368 2.937252 2.29296) // 247
    (-0.215583 -0.106824 0.0) // 248
    (-0.156101 -0.017889 2.29296) // 249
    (-0.610368 -2.937252 0.0) // 250
    (-0.610368 -2.937252 2.29296) // 251
    (-0.284095 0.190813 0.0) // 252
    (-0.205603 0.197166 2.29296) // 253
    (-0.80939 2.888752 0.0) // 254
    (-0.80939 2.888752 2.29296) // 255
    (-0.277797 -0.108877 0.0) // 256
    (-0.201052 -0.019372 2.29296) // 257
    (-0.80939 -2.888752 0.0) // 258
    (-0.80939 -2.888752 2.29296) // 259
    (-0.346951 0.189325 0.0) // 260
    (-0.25102 0.196092 2.29296) // 261
    (-1.004639 2.826783 0.0) // 262
    (-1.004639 2.826783 2.29296) // 263
    (-0.338493 -0.110433 0.0) // 264
    (-0.244908 -0.020497 2.29296) // 265
    (-1.004639 -2.826783 0.0) // 266
    (-1.004639 -2.826783 2.29296) // 267
    (-0.407945 0.186495 0.0) // 268
    (-0.29509 0.194046 2.29296) // 269
    (-1.195203 2.751634 0.0) // 270
    (-1.195203 2.751634 2.29296) // 271
    (-0.397453 -0.111408 0.0) // 272
    (-0.287509 -0.021201 2.29296) // 273
    (-1.195203 -2.751634 0.0) // 274
    (-1.195203 -2.751634 2.29296) // 275
    (-0.466812 0.182344 0.0) // 276
    (-0.337624 0.191047 2.29296) // 277
    (-1.380195 2.663656 0.0) // 278
    (-1.380195 2.663656 2.29296) // 279
    (-0.454466 -0.11173 0.0) // 280
    (-0.328703 -0.021433 2.29296) // 281
    (-1.380195 -2.663656 0.0) // 282
    (-1.380195 -2.663656 2.29296) // 283
    (-0.523299 0.176909 0.0) // 284
    (-0.378438 0.18712 2.29296) // 285
    (-1.558752 2.563258 0.0) // 286
    (-1.558752 2.563258 2.29296) // 287
    (-0.509327 -0.111331 0.0) // 288
    (-0.368342 -0.021145 2.29296) // 289
    (-1.558752 -2.563258 0.0) // 290
    (-1.558752 -2.563258 2.29296) // 291
    (-0.577165 0.170244 0.0) // 292
    (-0.417359 0.182305 2.29296) // 293
    (-1.730041 2.45091 0.0) // 294
    (-1.730041 2.45091 2.29296) // 295
    (-0.561834 -0.11015 0.0) // 296
    (-0.406282 -0.020292 2.29296) // 297
    (-1.730041 -2.45091 0.0) // 298
    (-1.730041 -2.45091 2.29296) // 299
    (-0.628186 0.162414 0.0) // 300
    (-0.454223 0.176647 2.29296) // 301
    (-1.893264 2.327134 0.0) // 302
    (-1.893264 2.327134 2.29296) // 303
    (-0.611798 -0.10814 0.0) // 304
    (-0.442383 -0.01884 2.29296) // 305
    (-1.893264 -2.327134 0.0) // 306
    (-1.893264 -2.327134 2.29296) // 307
    (-0.676144 0.153503 0.0) // 308
    (-0.488875 0.170208 2.29296) // 309
    (-2.047659 2.192508 0.0) // 310
    (-2.047659 2.192508 2.29296) // 311
    (-0.659034 -0.10526 0.0) // 312
    (-0.476513 -0.016759 2.29296) // 313
    (-2.047659 -2.192508 0.0) // 314
    (-2.047659 -2.192508 2.29296) // 315
    (-0.720845 0.143605 0.0) // 316
    (-0.521173 0.163056 2.29296) // 317
    (-2.192508 2.047659 0.0) // 318
    (-2.192508 2.047659 2.29296) // 319
    (-0.703367 -0.101477 0.0) // 320
    (-0.508545 -0.014026 2.29296) // 321
    (-2.192508 -2.047659 0.0) // 322
    (-2.192508 -2.047659 2.29296) // 323
    (-0.762102 0.132819 0.0) // 324
    (-0.550983 0.155263 2.29296) // 325
    (-2.327134 1.893264 0.0) // 326
    (-2.327134 1.893264 2.29296) // 327
    (-0.744621 -0.096776 0.0) // 328
    (-0.538353 -0.010629 2.29296) // 329
    (-2.327134 -1.893264 0.0) // 330
    (-2.327134 -1.893264 2.29296) // 331
    (-0.79975 0.121257 0.0) // 332
    (-0.578186 0.14691 2.29296) // 333
    (-2.45091 1.730041 0.0) // 334
    (-2.45091 1.730041 2.29296) // 335
    (-0.782645 -0.091144 0.0) // 336
    (-0.565826 -0.006559 2.29296) // 337
    (-2.45091 -1.730041 0.0) // 338
    (-2.45091 -1.730041 2.29296) // 339
    (-0.833646 0.109036 0.0) // 340
    (-0.602677 0.138079 2.29296) // 341
    (-2.563258 1.558752 0.0) // 342
    (-2.563258 1.558752 2.29296) // 343
    (-0.817278 -0.084578 0.0) // 344
    (-0.59085 -0.001815 2.29296) // 345
    (-2.563258 -1.558752 0.0) // 346
    (-2.563258 -1.558752 2.29296) // 347
    (-0.863659 0.096268 0.0) // 348
    (-0.624362 0.128854 2.29296) // 349
    (-2.663656 1.380195 0.0) // 350
    (-2.663656 1.380195 2.29296) // 351
    (-0.848386 -0.077086 0.0) // 352
    (-0.613327 0.003598 2.29296) // 353
    (-2.663656 -1.380195 0.0) // 354
    (-2.663656 -1.380195 2.29296) // 355
    (-0.889677 0.083067 0.0) // 356
    (-0.643162 0.119315 2.29296) // 357
    (-2.751634 1.195203 0.0) // 358
    (-2.751634 1.195203 2.29296) // 359
    (-0.875835 -0.068679 0.0) // 360
    (-0.63316 0.009673 2.29296) // 361
    (-2.751634 -1.195203 0.0) // 362
    (-2.751634 -1.195203 2.29296) // 363
    (-0.911608 0.069538 0.0) // 364
    (-0.659008 0.10954 2.29296) // 365
    (-2.826783 1.004639 0.0) // 366
    (-2.826783 1.004639 2.29296) // 367
    (-0.899507 -0.05937 0.0) // 368
    (-0.650264 0.016399 2.29296) // 369
    (-2.826783 -1.004639 0.0) // 370
    (-2.826783 -1.004639 2.29296) // 371
    (-0.929378 0.055782 0.0) // 372
    (-0.671847 0.099601 2.29296) // 373
    (-2.888752 0.80939 0.0) // 374
    (-2.888752 0.80939 2.29296) // 375
    (-0.919295 -0.049182 0.0) // 376
    (-0.664562 0.02376 2.29296) // 377
    (-2.888752 -0.80939 0.0) // 378
    (-2.888752 -0.80939 2.29296) // 379
    (-0.942933 0.041885 0.0) // 380
    (-0.681641 0.08956 2.29296) // 381
    (-2.937252 0.610368 0.0) // 382
    (-2.937252 0.610368 2.29296) // 383
    (-0.935108 -0.03813 0.0) // 384
    (-0.675988 0.031745 2.29296) // 385
    (-2.937252 -0.610368 0.0) // 386
    (-2.937252 -0.610368 2.29296) // 387
    (-0.952233 0.027921 0.0) // 388
    (-0.688361 0.07947 2.29296) // 389
    (-2.972058 0.4085 0.0) // 390
    (-2.972058 0.4085 2.29296) // 391
    (-0.946869 -0.026239 0.0) // 392
    (-0.684486 0.040337 2.29296) // 393
    (-2.972058 -0.4085 0.0) // 394
    (-2.972058 -0.4085 2.29296) // 395
    (-0.957256 0.013947 0.0) // 396
    (-0.691991 0.069373 2.29296) // 397
    (-2.993006 0.204727 0.0) // 398
    (-2.993006 0.204727 2.29296) // 399
    (-0.954515 -0.013522 0.0) // 400
    (-0.69001 0.049526 2.29296) // 401
    (-2.993006 -0.204727 0.0) // 402
    (-2.993006 -0.204727 2.29296) // 403
    (-0.958 0.0 0.0) // 404
    (-0.692528 0.059296 2.29296) // 405
    (-3.0 0.0 0.0) // 406
    (-3.0 0.0 2.29296) // 407
    (0.578975 0.109245 4.264804) // 408
    (0.58 0.109 4.265) // 409
    (0.578975 3.0 4.264804) // 410
    (0.58 3.0 4.265) // 411
    (0.578952 0.108894 4.2648) // 412
    (0.58 -3.0 4.265) // 413
    (0.578952 -3.0 4.2648) // 414
    (3.0 0.109 4.265) // 415
    (3.0 3.0 4.265) // 416
    (3.0 -3.0 4.265) // 417
    (0.575906 0.109973 4.264219) // 418
    (0.575906 3.0 4.264219) // 419
    (0.575814 0.108577 4.264201) // 420
    (0.575814 -3.0 4.264201) // 421
    (0.570803 0.11118 4.263245) // 422
    (0.570803 3.0 4.263245) // 423
    (0.570598 0.108051 4.263206) // 424
    (0.570598 -3.0 4.263206) // 425
    (0.563685 0.112848 4.261887) // 426
    (0.563685 3.0 4.261887) // 427
    (0.563327 0.107322 4.261819) // 428
    (0.563327 -3.0 4.261819) // 429
    (0.554578 0.114959 4.26015) // 430
    (0.554578 3.0 4.26015) // 431
    (0.554031 0.106398 4.260046) // 432
    (0.554031 -3.0 4.260046) // 433
    (0.543516 0.117486 4.258039) // 434
    (0.543516 3.0 4.258039) // 435
    (0.54275 0.105285 4.257893) // 436
    (0.54275 -3.0 4.257893) // 437
    (0.530538 0.120403 4.255563) // 438
    (0.530538 3.0 4.255563) // 439
    (0.529531 0.103995 4.255371) // 440
    (0.529531 -3.0 4.255371) // 441
    (0.515693 0.123675 4.252731) // 442
    (0.515693 3.0 4.252731) // 443
    (0.514429 0.102537 4.25249) // 444
    (0.514429 -3.0 4.25249) // 445
    (0.499037 0.127267 4.249553) // 446
    (0.499037 3.0 4.249553) // 447
    (0.497508 0.100923 4.249262) // 448
    (0.497508 -3.0 4.249262) // 449
    (0.48063 0.131139 4.246042) // 450
    (0.48063 3.0 4.246042) // 451
    (0.478838 0.099166 4.2457) // 452
    (0.478838 -3.0 4.2457) // 453
    (0.460544 0.135253 4.242209) // 454
    (0.460544 3.0 4.242209) // 455
    (0.458496 0.097276 4.241819) // 456
    (0.458496 -3.0 4.241819) // 457
    (0.438852 0.139564 4.238071) // 458
    (0.438852 3.0 4.238071) // 459
    (0.436566 0.095265 4.237635) // 460
    (0.436566 -3.0 4.237635) // 461
    (0.415637 0.144033 4.233642) // 462
    (0.415637 3.0 4.233642) // 463
    (0.413137 0.093146 4.233165) // 464
    (0.413137 -3.0 4.233165) // 465
    (0.39099 0.148614 4.228939) // 466
    (0.39099 3.0 4.228939) // 467
    (0.388306 0.090932 4.228427) // 468
    (0.388306 -3.0 4.228427) // 469
    (0.365002 0.153264 4.223981) // 470
    (0.365002 3.0 4.223981) // 471
    (0.362173 0.088635 4.223442) // 472
    (0.362173 -3.0 4.223442) // 473
    (0.337774 0.15794 4.218787) // 474
    (0.337774 3.0 4.218787) // 475
    (0.334844 0.086267 4.218228) // 476
    (0.334844 -3.0 4.218228) // 477
    (0.309412 0.162599 4.215) // 478
    (0.309412 3.0 4.215) // 479
    (0.306429 0.083845 4.215) // 480
    (0.306429 -3.0 4.215) // 481
    (0.280026 0.167197 4.215) // 482
    (0.280026 3.0 4.215) // 483
    (0.277042 0.081381 4.215) // 484
    (0.277042 -3.0 4.215) // 485
    (0.24973 0.171692 4.215) // 486
    (0.24973 3.0 4.215) // 487
    (0.246801 0.078893 4.215) // 488
    (0.246801 -3.0 4.215) // 489
    (0.218643 0.176042 4.215) // 490
    (0.218643 3.0 4.215) // 491
    (0.215825 0.076401 4.215) // 492
    (0.215825 -3.0 4.215) // 493
    (0.186887 0.180205 4.215) // 494
    (0.186887 3.0 4.215) // 495
    (0.184237 0.073924 4.215) // 496
    (0.184237 -3.0 4.215) // 497
    (0.154587 0.184139 4.215) // 498
    (0.154587 3.0 4.215) // 499
    (0.152163 0.071485 4.215) // 500
    (0.152163 -3.0 4.215) // 501
    (0.121872 0.187804 4.215) // 502
    (0.121872 3.0 4.215) // 503
    (0.119727 0.069109 4.215) // 504
    (0.119727 -3.0 4.215) // 505
    (0.088873 0.191159 4.215) // 506
    (0.088873 3.0 4.215) // 507
    (0.087058 0.066826 4.215) // 508
    (0.087058 -3.0 4.215) // 509
    (0.055719 0.194168 4.215) // 510
    (0.055719 3.0 4.215) // 511
    (0.054281 0.064665 4.215) // 512
    (0.054281 -3.0 4.215) // 513
    (0.022547 0.196792 4.215) // 514
    (0.022547 3.0 4.215) // 515
    (0.021524 0.062659 4.215) // 516
    (0.021524 -3.0 4.215) // 517
    (-0.010514 0.198995 4.215) // 518
    (-0.0 3.0 4.215) // 519
    (-0.011087 0.060842 4.215) // 520
    (-0.0 -3.0 4.215) // 521
    (-0.043325 0.200747 4.215) // 522
    (-0.204727 2.993006 4.215) // 523
    (-0.043425 0.059248 4.215) // 524
    (-0.204727 -2.993006 4.215) // 525
    (-0.076001 0.201973 4.215) // 526
    (-0.4085 2.972058 4.215) // 527
    (-0.075123 0.057871 4.215) // 528
    (-0.4085 -2.972058 4.215) // 529
    (-0.108228 0.20256 4.215) // 530
    (-0.610368 2.937252 4.215) // 531
    (-0.10624 0.05666 4.215) // 532
    (-0.610368 -2.937252 4.215) // 533
    (-0.139809 0.202492 4.215) // 534
    (-0.80939 2.888752 4.215) // 535
    (-0.136723 0.055654 4.215) // 536
    (-0.80939 -2.888752 4.215) // 537
    (-0.170606 0.201763 4.215) // 538
    (-1.004639 2.826783 4.215) // 539
    (-0.166462 0.054891 4.215) // 540
    (-1.004639 -2.826783 4.215) // 541
    (-0.200491 0.200376 4.215) // 542
    (-1.195203 2.751634 4.215) // 543
    (-0.19535 0.054414 4.215) // 544
    (-1.195203 -2.751634 4.215) // 545
    (-0.229334 0.198342 4.215) // 546
    (-1.380195 2.663656 4.215) // 547
    (-0.223285 0.054256 4.215) // 548
    (-1.380195 -2.663656 4.215) // 549
    (-0.257011 0.19568 4.215) // 550
    (-1.558752 2.563258 4.215) // 551
    (-0.250165 0.054451 4.215) // 552
    (-1.558752 -2.563258 4.215) // 553
    (-0.283403 0.192414 4.215) // 554
    (-1.730041 2.45091 4.215) // 555
    (-0.275892 0.05503 4.215) // 556
    (-1.730041 -2.45091 4.215) // 557
    (-0.308402 0.188577 4.215) // 558
    (-1.893264 2.327134 4.215) // 559
    (-0.300372 0.056015 4.215) // 560
    (-1.893264 -2.327134 4.215) // 561
    (-0.3319 0.184212 4.215) // 562
    (-2.047659 2.192508 4.215) // 563
    (-0.323517 0.057426 4.215) // 564
    (-2.047659 -2.192508 4.215) // 565
    (-0.353802 0.179362 4.215) // 566
    (-2.192508 2.047659 4.215) // 567
    (-0.345238 0.059279 4.215) // 568
    (-2.192508 -2.047659 4.215) // 569
    (-0.374016 0.174077 4.215) // 570
    (-2.327134 1.893264 4.215) // 571
    (-0.365451 0.061583 4.215) // 572
    (-2.327134 -1.893264 4.215) // 573
    (-0.392463 0.168412 4.215) // 574
    (-2.45091 1.730041 4.215) // 575
    (-0.384082 0.064342 4.215) // 576
    (-2.45091 -1.730041 4.215) // 577
    (-0.409071 0.162424 4.215) // 578
    (-2.563258 1.558752 4.215) // 579
    (-0.401051 0.06756 4.215) // 580
    (-2.563258 -1.558752 4.215) // 581
    (-0.423776 0.156168 4.215) // 582
    (-2.663656 1.380195 4.215) // 583
    (-0.416292 0.07123 4.215) // 584
    (-2.663656 -1.380195 4.215) // 585
    (-0.436524 0.1497 4.215) // 586
    (-2.751634 1.195203 4.215) // 587
    (-0.429742 0.07535 4.215) // 588
    (-2.751634 -1.195203 4.215) // 589
    (-0.44727 0.143071 4.215) // 590
    (-2.826783 1.004639 4.215) // 591
    (-0.44134 0.079911 4.215) // 592
    (-2.826783 -1.004639 4.215) // 593
    (-0.455976 0.136331 4.215) // 594
    (-2.888752 0.80939 4.215) // 595
    (-0.451036 0.084902 4.215) // 596
    (-2.888752 -0.80939 4.215) // 597
    (-0.462617 0.129522 4.215) // 598
    (-2.937252 0.610368 4.215) // 599
    (-0.458784 0.090317 4.215) // 600
    (-2.937252 -0.610368 4.215) // 601
    (-0.467174 0.12268 4.215) // 602
    (-2.972058 0.4085 4.215) // 603
    (-0.464546 0.096144 4.215) // 604
    (-2.972058 -0.4085 4.215) // 605
    (-0.469636 0.115833 4.215) // 606
    (-2.993006 0.204727 4.215) // 607
    (-0.468293 0.102374 4.215) // 608
    (-2.993006 -0.204727 4.215) // 609
    (-0.47 0.109 4.215) // 610
    (-3.0 0.0 4.215) // 611
    (0.578975 0.109245 4.27) // 612
    (0.58 0.109 4.27) // 613
    (0.578975 3.0 4.27) // 614
    (0.58 3.0 4.27) // 615
    (0.578952 0.108894 4.27) // 616
    (0.58 -3.0 4.27) // 617
    (0.578952 -3.0 4.27) // 618
    (3.0 0.109 4.27) // 619
    (3.0 3.0 4.27) // 620
    (3.0 -3.0 4.27) // 621
    (0.575906 0.109973 4.27) // 622
    (0.575906 3.0 4.27) // 623
    (0.575814 0.108577 4.27) // 624
    (0.575814 -3.0 4.27) // 625
    (0.570803 0.11118 4.27) // 626
    (0.570803 3.0 4.27) // 627
    (0.570598 0.108051 4.27) // 628
    (0.570598 -3.0 4.27) // 629
    (0.563685 0.112848 4.27) // 630
    (0.563685 3.0 4.27) // 631
    (0.563327 0.107322 4.27) // 632
    (0.563327 -3.0 4.27) // 633
    (0.554578 0.114959 4.27) // 634
    (0.554578 3.0 4.27) // 635
    (0.554031 0.106398 4.27) // 636
    (0.554031 -3.0 4.27) // 637
    (0.543516 0.117486 4.27) // 638
    (0.543516 3.0 4.27) // 639
    (0.54275 0.105285 4.27) // 640
    (0.54275 -3.0 4.27) // 641
    (0.530538 0.120403 4.27) // 642
    (0.530538 3.0 4.27) // 643
    (0.529531 0.103995 4.27) // 644
    (0.529531 -3.0 4.27) // 645
    (0.515693 0.123675 4.27) // 646
    (0.515693 3.0 4.27) // 647
    (0.514429 0.102537 4.27) // 648
    (0.514429 -3.0 4.27) // 649
    (0.499037 0.127267 4.27) // 650
    (0.499037 3.0 4.27) // 651
    (0.497508 0.100923 4.27) // 652
    (0.497508 -3.0 4.27) // 653
    (0.48063 0.131139 4.27) // 654
    (0.48063 3.0 4.27) // 655
    (0.478838 0.099166 4.27) // 656
    (0.478838 -3.0 4.27) // 657
    (0.460544 0.135253 4.27) // 658
    (0.460544 3.0 4.27) // 659
    (0.458496 0.097276 4.27) // 660
    (0.458496 -3.0 4.27) // 661
    (0.438852 0.139564 4.27) // 662
    (0.438852 3.0 4.27) // 663
    (0.436566 0.095265 4.27) // 664
    (0.436566 -3.0 4.27) // 665
    (0.415637 0.144033 4.27) // 666
    (0.415637 3.0 4.27) // 667
    (0.413137 0.093146 4.27) // 668
    (0.413137 -3.0 4.27) // 669
    (0.39099 0.148614 4.27) // 670
    (0.39099 3.0 4.27) // 671
    (0.388306 0.090932 4.27) // 672
    (0.388306 -3.0 4.27) // 673
    (0.365002 0.153264 4.27) // 674
    (0.365002 3.0 4.27) // 675
    (0.362173 0.088635 4.27) // 676
    (0.362173 -3.0 4.27) // 677
    (0.337774 0.15794 4.27) // 678
    (0.337774 3.0 4.27) // 679
    (0.334844 0.086267 4.27) // 680
    (0.334844 -3.0 4.27) // 681
    (0.309412 0.162599 4.27) // 682
    (0.309412 3.0 4.27) // 683
    (0.306429 0.083845 4.27) // 684
    (0.306429 -3.0 4.27) // 685
    (0.280026 0.167197 4.27) // 686
    (0.280026 3.0 4.27) // 687
    (0.277042 0.081381 4.27) // 688
    (0.277042 -3.0 4.27) // 689
    (0.24973 0.171692 4.27) // 690
    (0.24973 3.0 4.27) // 691
    (0.246801 0.078893 4.27) // 692
    (0.246801 -3.0 4.27) // 693
    (0.218643 0.176042 4.27) // 694
    (0.218643 3.0 4.27) // 695
    (0.215825 0.076401 4.27) // 696
    (0.215825 -3.0 4.27) // 697
    (0.186887 0.180205 4.27) // 698
    (0.186887 3.0 4.27) // 699
    (0.184237 0.073924 4.27) // 700
    (0.184237 -3.0 4.27) // 701
    (0.154587 0.184139 4.27) // 702
    (0.154587 3.0 4.27) // 703
    (0.152163 0.071485 4.27) // 704
    (0.152163 -3.0 4.27) // 705
    (0.121872 0.187804 4.27) // 706
    (0.121872 3.0 4.27) // 707
    (0.119727 0.069109 4.27) // 708
    (0.119727 -3.0 4.27) // 709
    (0.088873 0.191159 4.27) // 710
    (0.088873 3.0 4.27) // 711
    (0.087058 0.066826 4.27) // 712
    (0.087058 -3.0 4.27) // 713
    (0.055719 0.194168 4.27) // 714
    (0.055719 3.0 4.27) // 715
    (0.054281 0.064665 4.27) // 716
    (0.054281 -3.0 4.27) // 717
    (0.022547 0.196792 4.27) // 718
    (0.022547 3.0 4.27) // 719
    (0.021524 0.062659 4.27) // 720
    (0.021524 -3.0 4.27) // 721
    (-0.010514 0.198995 4.27) // 722
    (-0.0 3.0 4.27) // 723
    (-0.011087 0.060842 4.27) // 724
    (-0.0 -3.0 4.27) // 725
    (-0.043325 0.200747 4.27) // 726
    (-0.204727 2.993006 4.27) // 727
    (-0.043425 0.059248 4.27) // 728
    (-0.204727 -2.993006 4.27) // 729
    (-0.076001 0.201973 4.27) // 730
    (-0.4085 2.972058 4.27) // 731
    (-0.075123 0.057871 4.27) // 732
    (-0.4085 -2.972058 4.27) // 733
    (-0.108228 0.20256 4.27) // 734
    (-0.610368 2.937252 4.27) // 735
    (-0.10624 0.05666 4.27) // 736
    (-0.610368 -2.937252 4.27) // 737
    (-0.139809 0.202492 4.27) // 738
    (-0.80939 2.888752 4.27) // 739
    (-0.136723 0.055654 4.27) // 740
    (-0.80939 -2.888752 4.27) // 741
    (-0.170606 0.201763 4.27) // 742
    (-1.004639 2.826783 4.27) // 743
    (-0.166462 0.054891 4.27) // 744
    (-1.004639 -2.826783 4.27) // 745
    (-0.200491 0.200376 4.27) // 746
    (-1.195203 2.751634 4.27) // 747
    (-0.19535 0.054414 4.27) // 748
    (-1.195203 -2.751634 4.27) // 749
    (-0.229334 0.198342 4.27) // 750
    (-1.380195 2.663656 4.27) // 751
    (-0.223285 0.054256 4.27) // 752
    (-1.380195 -2.663656 4.27) // 753
    (-0.257011 0.19568 4.27) // 754
    (-1.558752 2.563258 4.27) // 755
    (-0.250165 0.054451 4.27) // 756
    (-1.558752 -2.563258 4.27) // 757
    (-0.283403 0.192414 4.27) // 758
    (-1.730041 2.45091 4.27) // 759
    (-0.275892 0.05503 4.27) // 760
    (-1.730041 -2.45091 4.27) // 761
    (-0.308402 0.188577 4.27) // 762
    (-1.893264 2.327134 4.27) // 763
    (-0.300372 0.056015 4.27) // 764
    (-1.893264 -2.327134 4.27) // 765
    (-0.3319 0.184212 4.27) // 766
    (-2.047659 2.192508 4.27) // 767
    (-0.323517 0.057426 4.27) // 768
    (-2.047659 -2.192508 4.27) // 769
    (-0.353802 0.179362 4.27) // 770
    (-2.192508 2.047659 4.27) // 771
    (-0.345238 0.059279 4.27) // 772
    (-2.192508 -2.047659 4.27) // 773
    (-0.374016 0.174077 4.27) // 774
    (-2.327134 1.893264 4.27) // 775
    (-0.365451 0.061583 4.27) // 776
    (-2.327134 -1.893264 4.27) // 777
    (-0.392463 0.168412 4.27) // 778
    (-2.45091 1.730041 4.27) // 779
    (-0.384082 0.064342 4.27) // 780
    (-2.45091 -1.730041 4.27) // 781
    (-0.409071 0.162424 4.27) // 782
    (-2.563258 1.558752 4.27) // 783
    (-0.401051 0.06756 4.27) // 784
    (-2.563258 -1.558752 4.27) // 785
    (-0.423776 0.156168 4.27) // 786
    (-2.663656 1.380195 4.27) // 787
    (-0.416292 0.07123 4.27) // 788
    (-2.663656 -1.380195 4.27) // 789
    (-0.436524 0.1497 4.27) // 790
    (-2.751634 1.195203 4.27) // 791
    (-0.429742 0.07535 4.27) // 792
    (-2.751634 -1.195203 4.27) // 793
    (-0.44727 0.143071 4.27) // 794
    (-2.826783 1.004639 4.27) // 795
    (-0.44134 0.079911 4.27) // 796
    (-2.826783 -1.004639 4.27) // 797
    (-0.455976 0.136331 4.27) // 798
    (-2.888752 0.80939 4.27) // 799
    (-0.451036 0.084902 4.27) // 800
    (-2.888752 -0.80939 4.27) // 801
    (-0.462617 0.129522 4.27) // 802
    (-2.937252 0.610368 4.27) // 803
    (-0.458784 0.090317 4.27) // 804
    (-2.937252 -0.610368 4.27) // 805
    (-0.467174 0.12268 4.27) // 806
    (-2.972058 0.4085 4.27) // 807
    (-0.464546 0.096144 4.27) // 808
    (-2.972058 -0.4085 4.27) // 809
    (-0.469636 0.115833 4.27) // 810
    (-2.993006 0.204727 4.27) // 811
    (-0.468293 0.102374 4.27) // 812
    (-2.993006 -0.204727 4.27) // 813
    (-0.47 0.109 4.27) // 814
    (-3.0 0.0 4.27) // 815
);

blocks
(
  hex ( 0 1 2 3 4 5 6 7 ) (1 30 20) simpleGrading (1 1 1000)
  hex ( 8 0 3 9 10 11 12 13 ) (1 30 20) simpleGrading (1 1 1000)
  hex ( 0 3 14 15 4 7 16 17 ) (30 20 20) simpleGrading (1 1000 1000)
  hex ( 11 12 18 19 0 3 14 15 ) (30 20 20) simpleGrading (1 1000 0.001)
  hex ( 1 20 21 2 5 22 23 6 ) (1 30 20) simpleGrading (1 1 1000)
  hex ( 24 8 9 25 26 10 13 27 ) (1 30 20) simpleGrading (1 1 1000)
  hex ( 20 28 29 21 22 30 31 23 ) (1 30 20) simpleGrading (1 1 1000)
  hex ( 32 24 25 33 34 26 27 35 ) (1 30 20) simpleGrading (1 1 1000)
  hex ( 28 36 37 29 30 38 39 31 ) (1 30 20) simpleGrading (1 1 1000)