FoamFile
{
    version     2.0;
format      ascii;
class       dictionary;
object      blockMeshDict;
}
convertToMeters 1;

vertices
(
    (2.140908 0.000499 0.0) // 0
    (2.143 0.0 0.0) // 1
    (2.12132 2.12132 0.0) // 2
    (2.019038 2.218893 0.0) // 3
    (1.341973 0.109207 4.215) // 4
    (1.343 0.109 4.215) // 5
    (2.12132 2.12132 4.215) // 6
    (2.019038 2.218893 4.215) // 7
    (1.341955 0.108932 4.215) // 8
    (2.12132 -2.12132 4.215) // 9
    (2.019038 -2.218893 4.215) // 10
    (2.140861 -0.000216 0.0) // 11
    (2.12132 -2.12132 0.0) // 12
    (2.019038 -2.218893 0.0) // 13
    (2.134644 0.001987 0.0) // 14
    (1.912272 2.31154 0.0) // 15
    (1.338897 0.109824 4.215) // 16
    (1.912272 2.31154 4.215) // 17
    (1.338824 0.108726 4.215) // 18
    (1.912272 -2.31154 4.215) // 19
    (2.134456 -0.000864 0.0) // 20
    (1.912272 -2.31154 0.0) // 21
    (2.124229 0.004449 0.0) // 22
    (1.801261 2.399054 0.0) // 23
    (1.333782 0.110845 4.215) // 24
    (1.801261 2.399054 4.215) // 25
    (1.33362 0.108386 4.215) // 26
    (1.801261 -2.399054 4.215) // 27
    (2.123812 -0.001937 0.0) // 28
    (1.801261 -2.399054 0.0) // 29
    (2.109702 0.007854 0.0) // 30
    (1.68625 2.481242 0.0) // 31
    (1.326647 0.112256 4.215) // 32
    (1.68625 2.481242 4.215) // 33
    (1.326365 0.107914 4.215) // 34
    (1.68625 -2.481242 4.215) // 35
    (2.108971 -0.003425 0.0) // 36
    (1.68625 -2.481242 0.0) // 37
    (2.091116 0.012162 0.0) // 38
    (1.567496 2.55792 0.0) // 39
    (1.31752 0.114041 4.215) // 40
    (1.567496 2.55792 4.215) // 41
    (1.317089 0.107315 4.215) // 42
    (1.567496 -2.55792 4.215) // 43
    (2.089999 -0.00531 0.0) // 44
    (1.567496 -2.55792 0.0) // 45
    (2.068537 0.01732 0.0) // 46
    (1.445261 2.62892 0.0) // 47
    (1.306434 0.116179 4.215) // 48
    (1.445261 2.62892 4.215) // 49
    (1.305832 0.106592 4.215) // 50
    (1.445261 -2.62892 4.215) // 51
    (2.066975 -0.007582 0.0) // 52
    (1.445261 -2.62892 0.0) // 53
    (2.04205 0.023273 0.0) // 54
    (1.319818 2.694083 0.0) // 55
    (1.29343 0.118645 4.215) // 56
    (1.319818 2.694083 4.215) // 57
    (1.292639 0.105753 4.215) // 58
    (1.319818 -2.694083 4.215) // 59
    (2.039995 -0.010216 0.0) // 60
    (1.319818 -2.694083 0.0) // 61
    (2.011752 0.029951 0.0) // 62
    (1.191444 2.753264 0.0) // 63
    (1.278557 0.12141 4.215) // 64
    (1.191444 2.753264 4.215) // 65
    (1.277564 0.104802 4.215) // 66
    (1.191444 -2.753264 4.215) // 67
    (2.009172 -0.01319 0.0) // 68
    (1.191444 -2.753264 0.0) // 69
    (1.977758 0.037282 0.0) // 70
    (1.060425 2.806332 0.0) // 71
    (1.261873 0.124444 4.215) // 72
    (1.060425 2.806332 4.215) // 73
    (1.260672 0.103746 4.215) // 74
    (1.060425 -2.806332 4.215) // 75
    (1.974637 -0.016484 0.0) // 76
    (1.060425 -2.806332 0.0) // 77
    (1.940191 0.045185 0.0) // 78
    (0.927051 2.85317 0.0) // 79
    (1.243438 0.127713 4.215) // 80
    (0.927051 2.85317 4.215) // 81
    (1.24203 0.102592 4.215) // 82
    (0.927051 -2.85317 4.215) // 83
    (1.936533 -0.020071 0.0) // 84
    (0.927051 -2.85317 0.0) // 85
    (1.899195 0.053581 0.0) // 86
    (0.791619 2.893672 0.0) // 87
    (1.223324 0.131183 4.215) // 88
    (0.791619 2.893672 4.215) // 89
    (1.221715 0.101344 4.215) // 90
    (0.791619 -2.893672 4.215) // 91
    (1.895016 -0.023929 0.0) // 92
    (0.791619 -2.893672 0.0) // 93
    (1.854923 0.062381 0.0) // 94
    (0.65443 2.92775 0.0) // 95
    (1.201607 0.134818 4.215) // 96
    (0.65443 2.92775 4.215) // 97
    (1.19981 0.100011 4.215) // 98
    (0.65443 -2.92775 4.215) // 99
    (1.850258 -0.028033 0.0) // 100
    (0.65443 -2.92775 0.0) // 101
    (1.807543 0.071501 0.0) // 102
    (0.515787 2.955328 0.0) // 103
    (1.178369 0.138581 4.215) // 104
    (0.515787 2.955328 4.215) // 105
    (1.176405 0.098599 4.215) // 106
    (0.515787 -2.955328 4.215) // 107
    (1.802441 -0.032357 0.0) // 108
    (0.515787 -2.955328 0.0) // 109
    (1.757239 0.080851 0.0) // 110
    (0.376 2.976344 0.0) // 111
    (1.153702 0.142434 4.215) // 112
    (0.376 2.976344 4.215) // 113
    (1.151593 0.097112 4.215) // 114
    (0.376 -2.976344 4.215) // 115
    (1.751761 -0.036877 0.0) // 116
    (0.376 -2.976344 0.0) // 117
    (1.704199 0.09034 0.0) // 118
    (0.235377 2.990752 0.0) // 119
    (1.127699 0.14634 4.215) // 120
    (0.235377 2.990752 4.215) // 121
    (1.125476 0.095559 4.215) // 122
    (0.235377 -2.990752 4.215) // 123
    (1.698426 -0.041563 0.0) // 124
    (0.235377 -2.990752 0.0) // 125
    (1.648629 0.099885 0.0) // 126
    (0.094232 2.99852 0.0) // 127
    (1.100461 0.150261 4.215) // 128
    (0.094232 2.99852 4.215) // 129
    (1.098158 0.093947 4.215) // 130
    (0.094232 -2.99852 4.215) // 131
    (1.642648 -0.046396 0.0) // 132
    (0.094232 -2.99852 0.0) // 133
    (1.590742 0.109394 0.0) // 134
    (-0.047122 2.99963 0.0) // 135
    (1.072093 0.154161 4.215) // 136
    (-0.047122 2.99963 4.215) // 137
    (1.069749 0.092283 4.215) // 138
    (-0.047122 -2.99963 4.215) // 139
    (1.584654 -0.05134 0.0) // 140
    (-0.047122 -2.99963 0.0) // 141
    (1.530766 0.118778 0.0) // 142
    (-0.188372 2.99408 0.0) // 143
    (1.042706 0.158002 4.215) // 144
    (-0.188372 2.99408 4.215) // 145
    (1.040362 0.090576 4.215) // 146
    (-0.188372 -2.99408 4.215) // 147
    (1.524678 -0.056369 0.0) // 148
    (-0.188372 -2.99408 0.0) // 149
    (1.468934 0.127952 0.0) // 150
    (-0.329203 2.981883 0.0) // 151
    (1.012416 0.16175 4.215) // 152
    (-0.329203 2.981883 4.215) // 153
    (1.010114 0.088837 4.215) // 154
    (-0.329203 -2.981883 4.215) // 155
    (1.462958 -0.061446 0.0) // 156
    (-0.329203 -2.981883 0.0) // 157
    (1.405487 0.136831 0.0) // 158
    (-0.469303 2.963065 0.0) // 159
    (0.981341 0.165366 4.215) // 160
    (-0.469303 2.963065 4.215) // 161
    (0.979127 0.087077 4.215) // 162
    (-0.469303 -2.963065 4.215) // 163
    (1.399737 -0.066534 0.0) // 164
    (-0.469303 -2.963065 0.0) // 165
    (1.340676 0.145325 0.0) // 166
    (-0.608362 2.937668 0.0) // 167
    (0.949603 0.168817 4.215) // 168
    (-0.608362 2.937668 4.215) // 169
    (0.947522 0.085311 4.215) // 170
    (-0.608362 -2.937668 4.215) // 171
    (1.335267 -0.071589 0.0) // 172
    (-0.608362 -2.937668 0.0) // 173
    (1.274753 0.153355 0.0) // 174
    (-0.74607 2.905749 0.0) // 175
    (0.917328 0.172068 4.215) // 176
    (-0.74607 2.905749 4.215) // 177
    (0.915423 0.083554 4.215) // 178
    (-0.74607 -2.905749 4.215) // 179
    (1.269805 -0.076567 0.0) // 180
    (-0.74607 -2.905749 0.0) // 181
    (1.207983 0.160834 0.0) // 182
    (-0.882121 2.867379 0.0) // 183
    (0.884642 0.175087 4.215) // 184
    (-0.882121 2.867379 4.215) // 185
    (0.882957 0.081826 4.215) // 186
    (-0.882121 -2.867379 4.215) // 187
    (1.203605 -0.081415 0.0) // 188
    (-0.882121 -2.867379 0.0) // 189
    (1.140633 0.167683 0.0) // 190
    (-1.016214 2.822642 0.0) // 191
    (0.851678 0.177838 4.215) // 192
    (-1.016214 2.822642 4.215) // 193
    (0.850252 0.080147 4.215) // 194
    (-1.016214 -2.822642 4.215) // 195
    (1.136928 -0.086076 0.0) // 196
    (-1.016214 -2.822642 0.0) // 197
    (1.072968 0.173823 0.0) // 198
    (-1.14805 2.771639 0.0) // 199
    (0.818565 0.180293 4.215) // 200
    (-1.14805 2.771639 4.215) // 201
    (0.817435 0.078541 4.215) // 202
    (-1.14805 -2.771639 4.215) // 203
    (1.070032 -0.090486 0.0) // 204
    (-1.14805 -2.771639 0.0) // 205
    (1.005264 0.179178 0.0) // 206
    (-1.277338 2.714481 0.0) // 207
    (0.785436 0.18242 4.215) // 208
    (-1.277338 2.714481 4.215) // 209
    (0.784633 0.077031 4.215) // 210
    (-1.277338 -2.714481 4.215) // 211
    (1.003177 -0.094579 0.0) // 212
    (-1.277338 -2.714481 0.0) // 213
    (0.93779 0.183677 0.0) // 214
    (-1.403789 2.651297 0.0) // 215
    (0.752425 0.184194 4.215) // 216
    (-1.403789 2.651297 4.215) // 217
    (0.751975 0.075645 4.215) // 218
    (-1.403789 -2.651297 4.215) // 219
    (0.93662 -0.098289 0.0) // 220
    (-1.403789 -2.651297 0.0) // 221
    (0.870823 0.187251 0.0) // 222
    (-1.527124 2.582226 0.0) // 223
    (0.719663 0.185587 4.215) // 224
    (-1.527124 2.582226 4.215) // 225
    (0.719586 0.074409 4.215) // 226
    (-1.527124 -2.582226 4.215) // 227
    (0.870619 -0.101542 0.0) // 228
    (-1.527124 -2.582226 0.0) // 229
    (0.804133 0.189754 0.0) // 230
    (-1.647068 2.507422 0.0) // 231
    (0.687093 0.186534 4.215) // 232
    (-1.647068 2.507422 4.215) // 233
    (0.687782 0.073311 4.215) // 234
    (-1.647068 -2.507422 4.215) // 235
    (0.805924 -0.104351 0.0) // 236
    (-1.647068 -2.507422 0.0) // 237
    (0.73836 0.190952 0.0) // 238
    (-1.763356 2.427051 0.0) // 239
    (0.654985 0.186928 4.215) // 240
    (-1.763356 2.427051 4.215) // 241
    (0.656547 0.072292 4.215) // 242
    (-1.763356 -2.427051 4.215) // 243
    (0.742417 -0.106824 0.0) // 244
    (-1.763356 -2.427051 0.0) // 245
    (0.673905 0.190813 0.0) // 246
    (-1.875728 2.341291 0.0) // 247
    (0.623522 0.186759 4.215) // 248
    (-1.875728 2.341291 4.215) // 249
    (0.625947 0.071386 4.215) // 250
    (-1.875728 -2.341291 4.215) // 251
    (0.680203 -0.108877 0.0) // 252
    (-1.875728 -2.341291 0.0) // 253
    (0.611049 0.189325 0.0) // 254
    (-1.983936 2.250333 0.0) // 255
    (0.592837 0.186027 4.215) // 256
    (-1.983936 2.250333 4.215) // 257
    (0.596094 0.070628 4.215) // 258
    (-1.983936 -2.250333 4.215) // 259
    (0.619507 -0.110433 0.0) // 260
    (-1.983936 -2.250333 0.0) // 261
    (0.550055 0.186495 0.0) // 262
    (-2.087738 2.154379 0.0) // 263
    (0.56306 0.184738 4.215) // 264
    (-2.087738 2.154379 4.215) // 265
    (0.567099 0.070052 4.215) // 266
    (-2.087738 -2.154379 4.215) // 267
    (0.560547 -0.111408 0.0) // 268
    (-2.087738 -2.154379 0.0) // 269
    (0.491188 0.182344 0.0) // 270
    (-2.186906 2.053641 0.0) // 271
    (0.534315 0.182905 4.215) // 272
    (-2.186906 2.053641 4.215) // 273
    (0.539068 0.069694 4.215) // 274
    (-2.186906 -2.053641 4.215) // 275
    (0.503534 -0.11173 0.0) // 276
    (-2.186906 -2.053641 0.0) // 277
    (0.434701 0.176909 0.0) // 278
    (-2.281218 1.948344 0.0) // 279
    (0.506723 0.180548 4.215) // 280
    (-2.281218 1.948344 4.215) // 281
    (0.512102 0.069583 4.215) // 282
    (-2.281218 -1.948344 4.215) // 283
    (0.448673 -0.111331 0.0) // 284
    (-2.281218 -1.948344 0.0) // 285
    (0.380835 0.170244 0.0) // 286
    (-2.370465 1.838721 0.0) // 287
    (0.480401 0.177694 4.215) // 288
    (-2.370465 1.838721 4.215) // 289
    (0.486304 0.069749 4.215) // 290
    (-2.370465 -1.838721 4.215) // 291
    (0.396166 -0.11015 0.0) // 292
    (-2.370465 -1.838721 0.0) // 293
    (0.329814 0.162414 0.0) // 294
    (-2.454449 1.725016 0.0) // 295
    (0.455458 0.174374 4.215) // 296
    (-2.454449 1.725016 4.215) // 297
    (0.461768 0.070218 4.215) // 298
    (-2.454449 -1.725016 4.215) // 299
    (0.346202 -0.10814 0.0) // 300
    (-2.454449 -1.725016 0.0) // 301
    (0.281856 0.153503 0.0) // 302
    (-2.532984 1.60748 0.0) // 303
    (0.431998 0.170628 4.215) // 304
    (-2.532984 1.60748 4.215) // 305
    (0.438585 0.07101 4.215) // 306
    (-2.532984 -1.60748 4.215) // 307
    (0.298966 -0.10526 0.0) // 308
    (-2.532984 -1.60748 0.0) // 309
    (0.237155 0.143605 0.0) // 310
    (-2.605895 1.486376 0.0) // 311
    (0.410116 0.166495 4.215) // 312
    (-2.605895 1.486376 4.215) // 313
    (0.416844 0.072145 4.215) // 314
    (-2.605895 -1.486376 4.215) // 315
    (0.254633 -0.101477 0.0) // 316
    (-2.605895 -1.486376 0.0) // 317
    (0.195898 0.132819 0.0) // 318
    (-2.67302 1.361971 0.0) // 319
    (0.389901 0.162024 4.215) // 320
    (-2.67302 1.361971 4.215) // 321
    (0.396631 0.073636 4.215) // 322
    (-2.67302 -1.361971 4.215) // 323
    (0.213379 -0.096776 0.0) // 324
    (-2.67302 -1.361971 0.0) // 325
    (0.15825 0.121257 0.0) // 326
    (-2.73421 1.234543 0.0) // 327
    (0.371435 0.157262 4.215) // 328
    (-2.73421 1.234543 4.215) // 329
    (0.378021 0.075493 4.215) // 330
    (-2.73421 -1.234543 4.215) // 331
    (0.175355 -0.091144 0.0) // 332
    (-2.73421 -1.234543 0.0) // 333
    (0.124354 0.109036 0.0) // 334
    (-2.789329 1.104374 0.0) // 335
    (0.354788 0.15226 4.215) // 336
    (-2.789329 1.104374 4.215) // 337
    (0.361089 0.077724 4.215) // 338
    (-2.789329 -1.104374 4.215) // 339
    (0.140722 -0.084578 0.0) // 340
    (-2.789329 -1.104374 0.0) // 341
    (0.094341 0.096268 0.0) // 342
    (-2.838256 0.971752 0.0) // 343
    (0.340026 0.147068 4.215) // 344
    (-2.838256 0.971752 4.215) // 345
    (0.345905 0.080331 4.215) // 346
    (-2.838256 -0.971752 4.215) // 347
    (0.109614 -0.077086 0.0) // 348
    (-2.838256 -0.971752 0.0) // 349
    (0.068323 0.083067 0.0) // 350
    (-2.880881 0.836973 0.0) // 351
    (0.327203 0.141734 4.215) // 352
    (-2.880881 0.836973 4.215) // 353
    (0.332531 0.083316 4.215) // 354
    (-2.880881 -0.836973 4.215) // 355
    (0.082165 -0.068679 0.0) // 356
    (-2.880881 -0.836973 0.0) // 357
    (0.046392 0.069538 0.0) // 358
    (-2.91711 0.700336 0.0) // 359
    (0.316366 0.136304 4.215) // 360
    (-2.91711 0.700336 4.215) // 361
    (0.321024 0.086678 4.215) // 362
    (-2.91711 -0.700336 4.215) // 363
    (0.058493 -0.05937 0.0) // 364
    (-2.91711 -0.700336 0.0) // 365
    (0.028622 0.055782 0.0) // 366
    (-2.946862 0.562144 0.0) // 367
    (0.307553 0.130821 4.215) // 368
    (-2.946862 0.562144 4.215) // 369
    (0.311435 0.090413 4.215) // 370
    (-2.946862 -0.562144 4.215) // 371
    (0.038705 -0.049182 0.0) // 372
    (-2.946862 -0.562144 0.0) // 373
    (0.015067 0.041885 0.0) // 374
    (-2.970071 0.422704 0.0) // 375
    (0.300793 0.125321 4.215) // 376
    (-2.970071 0.422704 4.215) // 377
    (0.303806 0.094517 4.215) // 378
    (-2.970071 -0.422704 4.215) // 379
    (0.022892 -0.03813 0.0) // 380
    (-2.970071 -0.422704 0.0) // 381
    (0.005767 0.027921 0.0) // 382
    (-2.986686 0.282325 0.0) // 383
    (0.296108 0.119837 4.215) // 384
    (-2.986686 0.282325 4.215) // 385
    (0.298172 0.098987 4.215) // 386
    (-2.986686 -0.282325 4.215) // 387
    (0.011131 -0.026239 0.0) // 388
    (-2.986686 -0.282325 0.0) // 389
    (0.000744 0.013947 0.0) // 390
    (-2.99667 0.141319 0.0) // 391
    (0.293508 0.114391 4.215) // 392
    (-2.99667 0.141319 4.215) // 393
    (0.294563 0.103816 4.215) // 394
    (-2.99667 -0.141319 4.215) // 395
    (0.003485 -0.013522 0.0) // 396
    (-2.99667 -0.141319 0.0) // 397
    (0.0 0.0 0.0) // 398
    (-3.0 0.0 0.0) // 399
    (0.293 0.109 4.215) // 400
    (-3.0 0.0 4.215) // 401
    (2.255519 1.978037 0.0) // 402
    (2.255519 1.978037 4.215) // 403
    (2.255519 -1.978037 4.215) // 404
    (2.255519 -1.978037 0.0) // 405
    (2.38006 1.826284 0.0) // 406
    (2.38006 1.826284 4.215) // 407
    (2.38006 -1.826284 4.215) // 408
    (2.38006 -1.826284 0.0) // 409
    (2.494409 1.666711 0.0) // 410
    (2.494409 1.666711 4.215) // 411
    (2.494409 -1.666711 4.215) // 412
    (2.494409 -1.666711 0.0) // 413
    (2.598076 1.5 0.0) // 414
    (2.598076 1.5 4.215) // 415
    (2.598076 -1.5 4.215) // 416
    (2.598076 -1.5 0.0) // 417
    (2.690618 1.326866 0.0) // 418
    (2.690618 1.326866 4.215) // 419
    (2.690618 -1.326866 4.215) // 420
    (2.690618 -1.326866 0.0) // 421
    (2.771639 1.14805 0.0) // 422
    (2.771639 1.14805 4.215) // 423
    (2.771639 -1.14805 4.215) // 424
    (2.771639 -1.14805 0.0) // 425
    (2.84079 0.964318 0.0) // 426
    (2.84079 0.964318 4.215) // 427
    (2.84079 -0.964318 4.215) // 428
    (2.84079 -0.964318 0.0) // 429
    (2.897777 0.776457 0.0) // 430
    (2.897777 0.776457 4.215) // 431
    (2.897777 -0.776457 4.215) // 432
    (2.897777 -0.776457 0.0) // 433
    (2.942356 0.585271 0.0) // 434
    (2.942356 0.585271 4.215) // 435
    (2.942356 -0.585271 4.215) // 436
    (2.942356 -0.585271 0.0) // 437
    (2.974335 0.391579 0.0) // 438
    (2.974335 0.391579 4.215) // 439
    (2.974335 -0.391579 4.215) // 440
    (2.974335 -0.391579 0.0) // 441
    (2.993577 0.196209 0.0) // 442
    (2.993577 0.196209 4.215) // 443
    (2.993577 -0.196209 4.215) // 444
    (2.993577 -0.196209 0.0) // 445
    (3.0 0.0 0.0) // 446
    (3.0 0.0 4.215) // 447
    (1.341964 0.109069 4.215393) // 448
    (1.33886 0.109275 4.21657) // 449
    (1.333701 0.109615 4.218525) // 450
    (1.326506 0.110085 4.221252) // 451
    (1.317304 0.110678 4.224735) // 452
    (1.306133 0.111386 4.228955) // 453
    (1.293034 0.112199 4.233887) // 454
    (1.278061 0.113106 4.239496) // 455
    (1.261272 0.114095 4.245735) // 456
    (1.242734 0.115152 4.252551) // 457
    (1.222519 0.116264 4.259875) // 458
    (1.200709 0.117415 4.267625) // 459
    (1.177387 0.11859 4.275709) // 460
    (1.152648 0.119773 4.284019) // 461
    (1.126587 0.12095 4.292437) // 462
    (1.099309 0.122104 4.300834) // 463
    (1.070921 0.123222 4.309076) // 464
    (1.041534 0.124289 4.317021) // 465
    (1.011265 0.125293 4.324529) // 466
    (0.980234 0.126222 4.331462) // 467
    (0.948562 0.127064 4.33769) // 468
    (0.916376 0.127811 4.343095) // 469
    (0.8838 0.128457 4.347574) // 470
    (0.850965 0.128993 4.351046) // 471
    (0.818 0.129417 4.35345) // 472
    (0.785035 0.129725 4.354751) // 473
    (0.7522 0.129919 4.354909) // 474
    (0.719624 0.129998 4.353532) // 475
    (0.687438 0.129922 4.350559) // 476
    (0.655766 0.12961 4.346105) // 477
    (0.624734 0.129072 4.340317) // 478
    (0.594466 0.128327 4.333372) // 479
    (0.56508 0.127395 4.325472) // 480
    (0.536691 0.1263 4.316828) // 481
    (0.509413 0.125066 4.307658) // 482
    (0.483352 0.123722 4.298178) // 483
    (0.458613 0.122296 4.288593) // 484
    (0.435291 0.120819 4.279096) // 485
    (0.41348 0.11932 4.269861) // 486
    (0.393266 0.11783 4.261041) // 487
    (0.374728 0.116378 4.252766) // 488
    (0.357939 0.114992 4.245147) // 489
    (0.342966 0.113699 4.23827) // 490
    (0.329867 0.112525 4.232206) // 491
    (0.318695 0.111491 4.227008) // 492
    (0.309494 0.110617 4.222714) // 493
    (0.302299 0.109919 4.21935) // 494
    (0.29714 0.109412 4.216937) // 495
    (0.294036 0.109103 4.215485) // 496
);

blocks
(
);

edges
(
);

boundary
(
);

mergePatchPairs
(
);
