FoamFile
{
    version     2.0;
format      ascii;
class       dictionary;
object      blockMeshDict;
}
convertToMeters 1;

vertices
(
    (2.14321 0.003144 0.0) // 0
    (2.141118 0.00363 0.0) // 1
    (1.342053 0.001412 4.215) // 2
    (1.343081 0.00121 4.215) // 3
    (2.14321 15.0 0.0) // 4
    (1.604729 14.992598 0.0) // 5
    (0.829732 14.992598 4.215) // 6
    (1.343081 15.0 4.215) // 7
    (2.13485 0.005081 0.0) // 8
    (1.338975 0.002015 4.215) // 9
    (1.066779 14.970401 0.0) // 10
    (0.31689 14.970401 4.215) // 11
    (2.124429 0.007483 0.0) // 12
    (1.333859 0.003012 4.215) // 13
    (0.529891 14.933429 0.0) // 14
    (-0.194939 14.933429 4.215) // 15
    (2.109895 0.010805 0.0) // 16
    (1.326721 0.004392 4.215) // 17
    (-0.005404 14.881721 0.0) // 18
    (-0.70525 14.881721 4.215) // 19
    (2.091298 0.015007 0.0) // 20
    (1.31759 0.006137 4.215) // 21
    (-0.538579 14.815325 0.0) // 22
    (-1.21354 14.815325 4.215) // 23
    (2.068709 0.020046 0.0) // 24
    (1.306499 0.008228 4.215) // 25
    (-1.069107 14.734309 0.0) // 26
    (-1.719307 14.734309 4.215) // 27
    (2.042208 0.02586 0.0) // 28
    (1.293491 0.010641 4.215) // 29
    (-1.596465 14.638751 0.0) // 30
    (-2.222052 14.638751 4.215) // 31
    (2.011898 0.032387 0.0) // 32
    (1.278614 0.013348 4.215) // 33
    (-2.120133 14.528747 0.0) // 34
    (-2.721278 14.528747 4.215) // 35
    (1.977888 0.039555 0.0) // 36
    (1.261923 0.01632 4.215) // 37
    (-2.639593 14.404405 0.0) // 38
    (-3.216493 14.404405 4.215) // 39
    (1.940309 0.04729 0.0) // 40
    (1.243483 0.019524 4.215) // 41
    (-3.154333 14.265848 0.0) // 42
    (-3.707209 14.265848 4.215) // 43
    (1.899298 0.055512 0.0) // 44
    (1.223364 0.022928 4.215) // 45
    (-3.663845 14.113212 0.0) // 46
    (-4.19294 14.113212 4.215) // 47
    (1.855013 0.064138 0.0) // 48
    (1.201642 0.026495 4.215) // 49
    (-4.167627 13.946647 0.0) // 50
    (-4.673208 13.946647 4.215) // 51
    (1.807623 0.073085 0.0) // 52
    (1.1784 0.030191 4.215) // 53
    (-4.66518 13.766319 0.0) // 54
    (-5.147539 13.766319 4.215) // 55
    (1.757305 0.082263 0.0) // 56
    (1.153727 0.033978 4.215) // 57
    (-5.156014 13.572406 0.0) // 58
    (-5.615465 13.572406 4.215) // 59
    (1.704253 0.091592 0.0) // 60
    (1.12772 0.037821 4.215) // 61
    (-5.639644 13.365098 0.0) // 62
    (-6.076523 13.365098 4.215) // 63
    (1.648672 0.10098 0.0) // 64
    (1.100477 0.041683 4.215) // 65
    (-6.115594 13.1446 0.0) // 66
    (-6.530258 13.1446 4.215) // 67
    (1.590779 0.110341 0.0) // 68
    (1.072106 0.045526 4.215) // 69
    (-6.583394 12.91113 0.0) // 70
    (-6.976224 12.91113 4.215) // 71
    (1.530796 0.11959 0.0) // 72
    (1.042717 0.049315 4.215) // 73
    (-7.042581 12.664919 0.0) // 74
    (-7.41398 12.664919 4.215) // 75
    (1.468956 0.128642 0.0) // 76
    (1.012424 0.053016 4.215) // 77
    (-7.492703 12.406209 0.0) // 78
    (-7.843093 12.406209 4.215) // 79
    (1.405504 0.137407 0.0) // 80
    (0.981347 0.056589 4.215) // 81
    (-7.933316 12.135255 0.0) // 82
    (-8.263141 12.135255 4.215) // 83
    (1.340687 0.145803 0.0) // 84
    (0.949608 0.060001 4.215) // 85
    (-8.363984 11.852325 0.0) // 86
    (-8.673709 11.852325 4.215) // 87
    (1.274761 0.153745 0.0) // 88
    (0.917331 0.063219 4.215) // 89
    (-8.784283 11.557699 0.0) // 90
    (-9.074391 11.557699 4.215) // 91
    (1.20799 0.161151 0.0) // 92
    (0.884645 0.066208 4.215) // 93
    (-9.193798 11.251666 0.0) // 94
    (-9.464792 11.251666 4.215) // 95
    (1.140635 0.167936 0.0) // 96
    (0.85168 0.068935 4.215) // 97
    (-9.592125 10.934529 0.0) // 98
    (-9.844528 10.934529 4.215) // 99
    (1.07297 0.17402 0.0) // 100
    (0.818566 0.071369 4.215) // 101
    (-9.97887 10.606602 0.0) // 102
    (-10.213222 10.606602 4.215) // 103
    (1.005264 0.179331 0.0) // 104
    (0.785437 0.073479 4.215) // 105
    (-10.353652 10.268207 0.0) // 106
    (-10.570512 10.268207 4.215) // 107
    (0.937792 0.183792 0.0) // 108
    (0.752425 0.075238 4.215) // 109
    (-10.716102 9.919678 0.0) // 110
    (-10.916045 9.919678 4.215) // 111
    (0.870823 0.187337 0.0) // 112
    (0.719663 0.07662 4.215) // 113
    (-11.06586 9.56136 0.0) // 114
    (-11.249479 9.56136 4.215) // 115
    (0.804133 0.189818 0.0) // 116
    (0.687093 0.077558 4.215) // 117
    (-11.402583 9.193606 0.0) // 118
    (-11.570486 9.193606 4.215) // 119
    (0.738358 0.190997 0.0) // 120
    (0.654984 0.077946 4.215) // 121
    (-11.725938 8.816779 0.0) // 122
    (-11.878749 8.816779 4.215) // 123
    (0.673905 0.190845 0.0) // 124
    (0.623522 0.077771 4.215) // 125
    (-12.035606 8.431251 0.0) // 126
    (-12.173964 8.431251 4.215) // 127
    (0.611046 0.189347 0.0) // 128
    (0.592837 0.077035 4.215) // 129
    (-12.331281 8.037402 0.0) // 130
    (-12.455839 8.037402 4.215) // 131
    (0.550055 0.18651 0.0) // 132
    (0.56306 0.075743 4.215) // 133
    (-12.612671 7.635621 0.0) // 134
    (-12.724096 7.635621 4.215) // 135
    (0.491188 0.182354 0.0) // 136
    (0.534314 0.073908 4.215) // 137
    (-12.879499 7.226305 0.0) // 138
    (-12.97847 7.226305 4.215) // 139
    (0.434701 0.176915 0.0) // 140
    (0.506723 0.07155 4.215) // 141
    (-13.131502 6.809857 0.0) // 142
    (-13.218711 6.809857 4.215) // 143
    (0.380835 0.170246 0.0) // 144
    (0.480401 0.068695 4.215) // 145
    (-13.36843 6.386689 0.0) // 146
    (-13.444581 6.386689 4.215) // 147
    (0.329814 0.162416 0.0) // 148
    (0.455458 0.065375 4.215) // 149
    (-13.59005 5.957218 0.0) // 150
    (-13.655857 5.957218 4.215) // 151
    (0.281856 0.153503 0.0) // 152
    (0.431998 0.061628 4.215) // 153
    (-13.796144 5.521868 0.0) // 154
    (-13.852331 5.521868 4.215) // 155
    (0.237155 0.143605 0.0) // 156
    (0.410116 0.057495 4.215) // 157
    (-13.986507 5.081069 0.0) // 158
    (-14.03381 5.081069 4.215) // 159
    (0.195898 0.132819 0.0) // 160
    (0.389901 0.053024 4.215) // 161
    (-14.160952 4.635255 0.0) // 162
    (-14.200113 4.635255 4.215) // 163
    (0.15825 0.12126 0.0) // 164
    (0.371435 0.048262 4.215) // 165
    (-14.319306 4.184867 0.0) // 166
    (-14.351076 4.184867 4.215) // 167
    (0.124354 0.109036 0.0) // 168
    (0.354788 0.04326 4.215) // 169
    (-14.461415 3.730348 0.0) // 170
    (-14.486552 3.730348 4.215) // 171
    (0.094341 0.096268 0.0) // 172
    (0.340026 0.038068 4.215) // 173
    (-14.587136 3.272149 0.0) // 174
    (-14.606406 3.272149 4.215) // 175
    (0.068323 0.083067 0.0) // 176
    (0.327203 0.032734 4.215) // 177
    (-14.696347 2.81072 0.0) // 178
    (-14.710519 2.81072 4.215) // 179
    (0.046392 0.069538 0.0) // 180
    (0.316366 0.027304 4.215) // 181
    (-14.788939 2.346517 0.0) // 182
    (-14.79879 2.346517 4.215) // 183
    (0.028622 0.055782 0.0) // 184
    (0.307553 0.021821 4.215) // 185
    (-14.864821 1.879999 0.0) // 186
    (-14.87113 1.879999 4.215) // 187
    (0.015067 0.041885 0.0) // 188
    (0.300793 0.016321 4.215) // 189
    (-14.923918 1.411625 0.0) // 190
    (-14.927469 1.411625 4.215) // 191
    (0.005767 0.027921 0.0) // 192
    (0.296108 0.010837 4.215) // 193
    (-14.966172 0.941858 0.0) // 194
    (-14.967751 0.941858 4.215) // 195
    (0.000744 0.013947 0.0) // 196
    (0.293508 0.005391 4.215) // 197
    (-14.991541 0.471161 0.0) // 198
    (-14.991936 0.471161 4.215) // 199
    (0.0 0.0 0.0) // 200
    (0.293 0.0 4.215) // 201
    (-15.0 0.0 0.0) // 202
    (-15.0 0.0 4.215) // 203
    (0.003485 -0.013522 0.0) // 204
    (0.294563 -0.005184 4.215) // 205
    (-14.991541 -0.471161 0.0) // 206
    (-14.991936 -0.471161 4.215) // 207
    (0.011131 -0.026239 0.0) // 208
    (0.298172 -0.010013 4.215) // 209
    (-14.966172 -0.941858 0.0) // 210
    (-14.967751 -0.941858 4.215) // 211
    (0.022892 -0.03813 0.0) // 212
    (0.303806 -0.014483 4.215) // 213
    (-14.923918 -1.411625 0.0) // 214
    (-14.927469 -1.411625 4.215) // 215
    (0.038705 -0.049182 0.0) // 216
    (0.311435 -0.018587 4.215) // 217
    (-14.864821 -1.879999 0.0) // 218
    (-14.87113 -1.879999 4.215) // 219
    (0.058493 -0.05937 0.0) // 220
    (0.321024 -0.022322 4.215) // 221
    (-14.788939 -2.346517 0.0) // 222
    (-14.79879 -2.346517 4.215) // 223
    (0.082165 -0.068679 0.0) // 224
    (0.332531 -0.025684 4.215) // 225
    (-14.696347 -2.81072 0.0) // 226
    (-14.710519 -2.81072 4.215) // 227
    (0.109614 -0.077086 0.0) // 228
    (0.345905 -0.028669 4.215) // 229
    (-14.587136 -3.272149 0.0) // 230
    (-14.606406 -3.272149 4.215) // 231
    (0.140722 -0.084578 0.0) // 232
    (0.361089 -0.031276 4.215) // 233
    (-14.461415 -3.730348 0.0) // 234
    (-14.486552 -3.730348 4.215) // 235
    (0.175355 -0.091144 0.0) // 236
    (0.378021 -0.033508 4.215) // 237
    (-14.319306 -4.184867 0.0) // 238
    (-14.351076 -4.184867 4.215) // 239
    (0.213379 -0.096776 0.0) // 240
    (0.396631 -0.035364 4.215) // 241
    (-14.160952 -4.635255 0.0) // 242
    (-14.200113 -4.635255 4.215) // 243
    (0.254633 -0.10148 0.0) // 244
    (0.416844 -0.036855 4.215) // 245
    (-13.986507 -5.081069 0.0) // 246
    (-14.03381 -5.081069 4.215) // 247
    (0.298966 -0.10526 0.0) // 248
    (0.438585 -0.03799 4.215) // 249
    (-13.796144 -5.521868 0.0) // 250
    (-13.852331 -5.521868 4.215) // 251
    (0.346202 -0.108142 0.0) // 252
    (0.461768 -0.038783 4.215) // 253
    (-13.59005 -5.957218 0.0) // 254
    (-13.655857 -5.957218 4.215) // 255
    (0.396166 -0.110154 0.0) // 256
    (0.486304 -0.039252 4.215) // 257
    (-13.36843 -6.386689 0.0) // 258
    (-13.444581 -6.386689 4.215) // 259
    (0.448673 -0.111335 0.0) // 260
    (0.512102 -0.039419 4.215) // 261
    (-13.131502 -6.809857 0.0) // 262
    (-13.218711 -6.809857 4.215) // 263
    (0.503534 -0.111738 0.0) // 264
    (0.539068 -0.03931 4.215) // 265
    (-12.879499 -7.226305 0.0) // 266
    (-12.97847 -7.226305 4.215) // 267
    (0.560547 -0.111423 0.0) // 268
    (0.567099 -0.038953 4.215) // 269
    (-12.612671 -7.635621 0.0) // 270
    (-12.724096 -7.635621 4.215) // 271
    (0.619507 -0.110455 0.0) // 272
    (0.596094 -0.038381 4.215) // 273
    (-12.331281 -8.037402 0.0) // 274
    (-12.455839 -8.037402 4.215) // 275
    (0.680205 -0.108909 0.0) // 276
    (0.625948 -0.037626 4.215) // 277
    (-12.035606 -8.431251 0.0) // 278
    (-12.173964 -8.431251 4.215) // 279
    (0.742419 -0.106869 0.0) // 280
    (0.656548 -0.036725 4.215) // 281
    (-11.725938 -8.816779 0.0) // 282
    (-11.878749 -8.816779 4.215) // 283
    (0.805924 -0.104416 0.0) // 284
    (0.687782 -0.035714 4.215) // 285
    (-11.402583 -9.193606 0.0) // 286
    (-11.570486 -9.193606 4.215) // 287
    (0.870619 -0.101627 0.0) // 288
    (0.719586 -0.034625 4.215) // 289
    (-11.06586 -9.56136 0.0) // 290
    (-11.249479 -9.56136 4.215) // 291
    (0.93662 -0.098404 0.0) // 292
    (0.751975 -0.0334 4.215) // 293
    (-10.716102 -9.919678 0.0) // 294
    (-10.916045 -9.919678 4.215) // 295
    (1.003175 -0.094731 0.0) // 296
    (0.784633 -0.032028 4.215) // 297
    (-10.353652 -10.268207 0.0) // 298
    (-10.570512 -10.268207 4.215) // 299
    (1.07003 -0.090681 0.0) // 300
    (0.817434 -0.030535 4.215) // 301
    (-9.97887 -10.606602 0.0) // 302
    (-10.213222 -10.606602 4.215) // 303
    (1.136924 -0.086326 0.0) // 304
    (0.850251 -0.02895 4.215) // 305
    (-9.592125 -10.934529 0.0) // 306
    (-9.844528 -10.934529 4.215) // 307
    (1.203599 -0.081732 0.0) // 308
    (0.882955 -0.027295 4.215) // 309
    (-9.193798 -11.251666 0.0) // 310
    (-9.464792 -11.251666 4.215) // 311
    (1.269796 -0.076959 0.0) // 312
    (0.915419 -0.025596 4.215) // 313
    (-8.784283 -11.557699 0.0) // 314
    (-9.074391 -11.557699 4.215) // 315
    (1.335256 -0.072069 0.0) // 316
    (0.947516 -0.023874 4.215) // 317
    (-8.363984 -11.852325 0.0) // 318
    (-8.673709 -11.852325 4.215) // 319
    (1.39972 -0.06711 0.0) // 320
    (0.97912 -0.022146 4.215) // 321
    (-7.933316 -12.135255 0.0) // 322
    (-8.263141 -12.135255 4.215) // 323
    (1.462934 -0.062134 0.0) // 324
    (1.010106 -0.020429 4.215) // 325
    (-7.492703 -12.406209 0.0) // 326
    (-7.843093 -12.406209 4.215) // 327
    (1.52465 -0.057182 0.0) // 328
    (1.040351 -0.018737 4.215) // 329
    (-7.042581 -12.664919 0.0) // 330
    (-7.41398 -12.664919 4.215) // 331
    (1.58462 -0.052289 0.0) // 332
    (1.069735 -0.017082 4.215) // 333
    (-6.583394 -12.91113 0.0) // 334
    (-6.976224 -12.91113 4.215) // 335
    (1.642603 -0.047491 0.0) // 336
    (1.098141 -0.015475 4.215) // 337
    (-6.115594 -13.1446 0.0) // 338
    (-6.530258 -13.1446 4.215) // 339
    (1.69837 -0.042815 0.0) // 340
    (1.125455 -0.013922 4.215) // 341
    (-5.639644 -13.365098 0.0) // 342
    (-6.076523 -13.365098 4.215) // 343
    (1.751695 -0.038289 0.0) // 344
    (1.151568 -0.012432 4.215) // 345
    (-5.156014 -13.572406 0.0) // 346
    (-5.615465 -13.572406 4.215) // 347
    (1.802362 -0.033941 0.0) // 348
    (1.176374 -0.011011 4.215) // 349
    (-4.66518 -13.766319 0.0) // 350
    (-5.147539 -13.766319 4.215) // 351
    (1.850165 -0.02979 0.0) // 352
    (1.199776 -0.009665 4.215) // 353
    (-4.167627 -13.946647 0.0) // 354
    (-4.673208 -13.946647 4.215) // 355
    (1.894911 -0.025862 0.0) // 356
    (1.221675 -0.008399 4.215) // 357
    (-3.663845 -14.113212 0.0) // 358
    (-4.19294 -14.113212 4.215) // 359
    (1.936415 -0.022176 0.0) // 360
    (1.241985 -0.007219 4.215) // 361
    (-3.154333 -14.265848 0.0) // 362
    (-3.707209 -14.265848 4.215) // 363
    (1.974507 -0.018758 0.0) // 364
    (1.260621 -0.00613 4.215) // 365
    (-2.639593 -14.404405 0.0) // 366
    (-3.216493 -14.404405 4.215) // 367
    (2.009028 -0.015627 0.0) // 368
    (1.277508 -0.005136 4.215) // 369
    (-2.120133 -14.528747 0.0) // 370
    (-2.721278 -14.528747 4.215) // 371
    (2.039836 -0.012802 0.0) // 372
    (1.292577 -0.004243 4.215) // 373
    (-1.596465 -14.638751 0.0) // 374
    (-2.222052 -14.638751 4.215) // 375
    (2.066803 -0.010306 0.0) // 376
    (1.305766 -0.003457 4.215) // 377
    (-1.069107 -14.734309 0.0) // 378
    (-1.719307 -14.734309 4.215) // 379
    (2.089817 -0.008158 0.0) // 380
    (1.31702 -0.002781 4.215) // 381
    (-0.538579 -14.815325 0.0) // 382
    (-1.21354 -14.815325 4.215) // 383
    (2.108778 -0.006375 0.0) // 384
    (1.326291 -0.002222 4.215) // 385
    (-0.005404 -14.881721 0.0) // 386
    (-0.70525 -14.881721 4.215) // 387
    (2.123612 -0.004972 0.0) // 388
    (1.333544 -0.001782 4.215) // 389
    (0.529891 -14.933429 0.0) // 390
    (-0.194939 -14.933429 4.215) // 391
    (2.134252 -0.003958 0.0) // 392
    (1.338745 -0.001465 4.215) // 393
    (1.066779 -14.970401 0.0) // 394
    (0.31689 -14.970401 4.215) // 395
    (2.140653 -0.003347 0.0) // 396
    (1.341874 -0.001274 4.215) // 397
    (1.604729 -14.992598 0.0) // 398
    (0.829732 -14.992598 4.215) // 399
    (2.14279 -0.003144 0.0) // 400
    (1.342919 -0.00121 4.215) // 401
    (2.14321 -15.0 0.0) // 402
    (1.343081 -15.0 4.215) // 403
    (15.0 15.0 0.0) // 404
    (15.0 15.0 4.215) // 405
    (15.0 0.003144 0.0) // 406
    (15.0 0.00121 4.215) // 407
    (2.143 0.0 0.0) // 408
    (15.0 0.0 0.0) // 409
    (15.0 0.0 4.215) // 410
    (1.343 0.0 4.215) // 411
    (15.0 -0.003144 0.0) // 412
    (15.0 -0.00121 4.215) // 413
    (15.0 -15.0 0.0) // 414
    (15.0 -15.0 4.215) // 415
    (1.342041 0.001383 4.215279) // 416
    (1.34307 0.001183 4.215251) // 417
    (0.829732 14.664974 7.332136) // 418
    (1.343081 14.672214 7.333675) // 419
    (15.0 0.001183 4.215251) // 420
    (15.0 14.672214 7.333675) // 421
    (1.342029 0.001296 4.215546) // 422
    (1.343059 0.001105 4.215492) // 423
    (0.829732 13.69642 10.313039) // 424
    (1.343081 13.703182 10.31605) // 425
    (15.0 0.001105 4.215492) // 426
    (15.0 13.703182 10.31605) // 427
    (1.342017 0.001156 4.215789) // 428
    (1.343049 0.000979 4.215711) // 429
    (0.829732 12.129267 13.027428) // 430
    (1.343081 12.135255 13.031779) // 431
    (15.0 0.000979 4.215711) // 432
    (15.0 12.135255 13.031779) // 433
    (1.342005 0.000968 4.215998) // 434
    (1.343038 0.000809 4.215899) // 435
    (0.829732 10.032006 15.356672) // 436
    (1.343081 10.036959 15.362172) // 437
    (15.0 0.000809 4.215899) // 438
    (15.0 10.036959 15.362172) // 439
    (1.341993 0.000741 4.216163) // 440
    (1.343027 0.000605 4.216048) // 441
    (0.829732 7.496299 17.198971) // 442
    (1.343081 7.5 17.205381) // 443
    (15.0 0.000605 4.216048) // 444
    (15.0 7.5 17.205381) // 445
    (1.341982 0.000484 4.216277) // 446
    (1.343016 0.000374 4.21615) // 447
    (0.829732 4.632968 18.473808) // 448
    (1.343081 4.635255 18.480848) // 449
    (15.0 0.000374 4.21615) // 450
    (15.0 4.635255 18.480848) // 451
    (1.34197 0.00021 4.216336) // 452
    (1.343005 0.000126 4.216203) // 453
    (0.829732 1.567153 19.125467) // 454
    (1.343081 1.567927 19.132828) // 455
    (15.0 0.000126 4.216203) // 456
    (15.0 1.567927 19.132828) // 457
    (1.341958 -7.1e-05 4.216336) // 458
    (1.342995 -0.000126 4.216203) // 459
    (0.829732 -1.567153 19.125467) // 460
    (1.343081 -1.567927 19.132828) // 461
    (15.0 -0.000126 4.216203) // 462
    (15.0 -1.567927 19.132828) // 463
    (1.341946 -0.000346 4.216277) // 464
    (1.342984 -0.000374 4.21615) // 465
    (0.829732 -4.632968 18.473808) // 466
    (1.343081 -4.635255 18.480848) // 467
    (15.0 -0.000374 4.21615) // 468
    (15.0 -4.635255 18.480848) // 469
    (1.341934 -0.000602 4.216163) // 470
    (1.342973 -0.000605 4.216048) // 471
    (0.829732 -7.496299 17.198971) // 472
    (1.343081 -7.5 17.205381) // 473
    (15.0 -0.000605 4.216048) // 474
    (15.0 -7.5 17.205381) // 475
    (1.341922 -0.000829 4.215998) // 476
    (1.342962 -0.000809 4.215899) // 477
    (0.829732 -10.032006 15.356672) // 478
    (1.343081 -10.036959 15.362172) // 479
    (15.0 -0.000809 4.215899) // 480
    (15.0 -10.036959 15.362172) // 481
    (1.34191 -0.001017 4.215789) // 482
    (1.342951 -0.000979 4.215711) // 483
    (0.829732 -12.129267 13.027428) // 484
    (1.343081 -12.135255 13.031779) // 485
    (15.0 -0.000979 4.215711) // 486
    (15.0 -12.135255 13.031779) // 487
    (1.341898 -0.001158 4.215546) // 488
    (1.342941 -0.001105 4.215492) // 489
    (0.829732 -13.69642 10.313039) // 490
    (1.343081 -13.703182 10.31605) // 491
    (15.0 -0.001105 4.215492) // 492
    (15.0 -13.703182 10.31605) // 493
    (1.341886 -0.001244 4.215279) // 494
    (1.34293 -0.001183 4.215251) // 495
    (0.829732 -14.664974 7.332136) // 496
    (1.343081 -14.672214 7.333675) // 497
    (15.0 -0.001183 4.215251) // 498
    (15.0 -14.672214 7.333675) // 499
    (1.33896 0.001977 4.215362) // 500
    (0.31689 14.643262 7.327521) // 501
    (1.338945 0.001865 4.215708) // 502
    (0.31689 13.676142 10.304011) // 503
    (1.338929 0.001683 4.216023) // 504
    (0.31689 12.111309 13.014381) // 505
    (1.338914 0.001439 4.216293) // 506
    (0.31689 10.017153 15.340176) // 507
    (1.338899 0.001145 4.216507) // 508
    (0.31689 7.4852 17.179748) // 509
    (1.338883 0.000813 4.216655) // 510
    (0.31689 4.626108 18.452697) // 511
    (1.338868 0.000457 4.21673) // 512
    (0.31689 1.564833 19.103392) // 513
    (1.338853 9.3e-05 4.21673) // 514
    (0.31689 -1.564833 19.103392) // 515
    (1.338837 -0.000263 4.216655) // 516
    (0.31689 -4.626108 18.452697) // 517
    (1.338822 -0.000595 4.216507) // 518
    (0.31689 -7.4852 17.179748) // 519
    (1.338807 -0.000889 4.216293) // 520
    (0.31689 -10.017153 15.340176) // 521
    (1.338791 -0.001132 4.216023) // 522
    (0.31689 -12.111309 13.014381) // 523
    (1.338776 -0.001314 4.215708) // 524
    (0.31689 -13.676142 10.304011) // 525
    (1.338761 -0.001427 4.215362) // 526
    (0.31689 -14.643262 7.327521) // 527
    (1.333838 0.00296 4.215498) // 528
    (-0.194939 14.607098 7.319835) // 529
    (1.333817 0.002805 4.215975) // 530
    (-0.194939 13.642367 10.288973) // 531
    (1.333796 0.002555 4.216409) // 532
    (-0.194939 12.081398 12.99265) // 533
    (1.333775 0.002219 4.216781) // 534
    (-0.194939 9.992415 15.312701) // 535
    (1.333754 0.001814 4.217076) // 536
    (-0.194939 7.466715 17.147729) // 537
    (1.333733 0.001356 4.21728) // 538
    (-0.194939 4.614683 18.417535) // 539
    (1.333712 0.000866 4.217384) // 540
    (-0.194939 1.560968 19.066623) // 541
    (1.333691 0.000365 4.217384) // 542
    (-0.194939 -1.560968 19.066623) // 543
    (1.33367 -0.000125 4.21728) // 544
    (-0.194939 -4.614683 18.417535) // 545
    (1.333649 -0.000583 4.217076) // 546
    (-0.194939 -7.466715 17.147729) // 547
    (1.333628 -0.000989 4.216781) // 548
    (-0.194939 -9.992415 15.312701) // 549
    (1.333607 -0.001324 4.216409) // 550
    (-0.194939 -12.081398 12.99265) // 551
    (1.333586 -0.001575 4.215975) // 552
    (-0.194939 -13.642367 10.288973) // 553
    (1.333565 -0.001729 4.215498) // 554
    (-0.194939 -14.607098 7.319835) // 555
    (1.326692 0.00432 4.215688) // 556
    (-0.70525 14.556519 7.309084) // 557
    (1.326664 0.004106 4.216345) // 558
    (-0.70525 13.595128 10.267941) // 559
    (1.326635 0.003761 4.216944) // 560
    (-0.70525 12.039565 12.962256) // 561
    (1.326606 0.003298 4.217458) // 562
    (-0.70525 9.957815 15.274274) // 563
    (1.326578 0.002739 4.217864) // 564
    (-0.70525 7.44086 17.102948) // 565
    (1.326549 0.002107 4.218145) // 566
    (-0.70525 4.598705 18.368357) // 567
    (1.32652 0.001431 4.218289) // 568
    (-0.70525 1.555563 19.015197) // 569
    (1.326492 0.00074 4.218289) // 570
    (-0.70525 -1.555563 19.015197) // 571
    (1.326463 6.3e-05 4.218145) // 572
    (-0.70525 -4.598705 18.368357) // 573
    (1.326434 -0.000568 4.217864) // 574
    (-0.70525 -7.44086 17.102948) // 575
    (1.326406 -0.001128 4.217458) // 576
    (-0.70525 -9.957815 15.274274) // 577
    (1.326377 -0.00159 4.216944) // 578
    (-0.70525 -12.039565 12.962256) // 579
    (1.326349 -0.001936 4.216345) // 580
    (-0.70525 -13.595128 10.267941) // 581
    (1.32632 -0.00215 4.215688) // 582
    (-0.70525 -14.556519 7.309084) // 583
    (1.317552 0.00604 4.215927) // 584
    (-1.21354 14.491575 7.295279) // 585
    (1.317514 0.005752 4.216814) // 586
    (-1.21354 13.534473 10.240936) // 587
    (1.317476 0.005286 4.217621) // 588
    (-1.21354 11.98585 12.92323) // 589
    (1.317438 0.004662 4.218314) // 590
    (-1.21354 9.913387 15.224932) // 591
    (1.3174 0.003908 4.218862) // 592
    (-1.21354 7.407663 17.045448) // 593
    (1.317362 0.003056 4.219241) // 594
    (-1.21354 4.578187 18.305211) // 595
    (1.317324 0.002144 4.219435) // 596
    (-1.21354 1.548623 18.949165) // 597
    (1.317286 0.001212 4.219435) // 598
    (-1.21354 -1.548623 18.949165) // 599
    (1.317248 0.0003 4.219241) // 600
    (-1.21354 -4.578187 18.305211) // 601
    (1.31721 -0.000552 4.218862) // 602
    (-1.21354 -7.407663 17.045448) // 603
    (1.317172 -0.001306 4.218314) // 604
    (-1.21354 -9.913387 15.224932) // 605
    (1.317134 -0.00193 4.217621) // 606
    (-1.21354 -11.98585 12.92323) // 607
    (1.317096 -0.002396 4.216814) // 608
    (-1.21354 -13.534473 10.240936) // 609
    (1.317058 -0.002684 4.215927) // 610
    (-1.21354 -14.491575 7.295279) // 611
    (1.30645 0.0081 4.216215) // 612
    (-1.719307 14.412329 7.278435) // 613
    (1.306401 0.007723 4.217376) // 614
    (-1.719307 13.460461 10.207983) // 615
    (1.306352 0.007112 4.218434) // 616
    (-1.719307 11.920306 12.875609) // 617
    (1.306303 0.006295 4.219342) // 618
    (-1.719307 9.859177 15.164725) // 619
    (1.306255 0.005307 4.220059) // 620
    (-1.719307 7.367154 16.975286) // 621
    (1.306206 0.004191 4.220556) // 622
    (-1.719307 4.553152 18.22816) // 623
    (1.306157 0.002996 4.22081) // 624
    (-1.719307 1.540155 18.868593) // 625
    (1.306108 0.001775 4.22081) // 626
    (-1.719307 -1.540155 18.868593) // 627
    (1.306059 0.00058 4.220556) // 628
    (-1.719307 -4.553152 18.22816) // 629
    (1.30601 -0.000535 4.220059) // 630
    (-1.719307 -7.367154 16.975286) // 631
    (1.305961 -0.001524 4.219342) // 632
    (-1.719307 -9.859177 15.164725) // 633
    (1.305913 -0.002341 4.218434) // 634
    (-1.719307 -11.920306 12.875609) // 635
    (1.305864 -0.002952 4.217376) // 636
    (-1.719307 -13.460461 10.207983) // 637
    (1.305815 -0.003329 4.216215) // 638
    (-1.719307 -14.412329 7.278435) // 639
    (1.29343 0.010478 4.216547) // 640
    (-2.222052 14.31886 7.258568) // 641
    (1.29337 0.009997 4.218027) // 642
    (-2.222052 13.373165 10.169117) // 643
    (1.293309 0.009219 4.219374) // 644
    (-2.222052 11.842999 12.819442) // 645
    (1.293248 0.008178 4.22053) // 646
    (-2.222052 9.795237 15.093712) // 647
    (1.293187 0.00692 4.221445) // 648
    (-2.222052 7.319376 16.892531) // 649
    (1.293126 0.005498 4.222078) // 650
    (-2.222052 4.523623 18.13728) // 651
    (1.293065 0.003977 4.222401) // 652
    (-2.222052 1.530166 18.773559) // 653
    (1.293004 0.002421 4.222401) // 654
    (-2.222052 -1.530166 18.773559) // 655
    (1.292943 0.000899 4.222078) // 656
    (-2.222052 -4.523623 18.13728) // 657
    (1.292882 -0.000522 4.221445) // 658
    (-2.222052 -7.319376 16.892531) // 659
    (1.292821 -0.001781 4.22053) // 660
    (-2.222052 -9.795237 15.093712) // 661
    (1.29276 -0.002822 4.219374) // 662
    (-2.222052 -11.842999 12.819442) // 663
    (1.292699 -0.0036 4.218027) // 664
    (-2.222052 -13.373165 10.169117) // 665
    (1.292638 -0.00408 4.216547) // 666
    (-2.222052 -14.31886 7.258568) // 667
    (1.27854 0.013146 4.216921) // 668
    (-2.721278 14.211259 7.235696) // 669
    (1.278467 0.012549 4.218759) // 670
    (-2.721278 13.272671 10.124374) // 671
    (1.278393 0.011583 4.220432) // 672
    (-2.721278 11.754004 12.754783) // 673
    (1.278319 0.01029 4.221868) // 674
    (-2.721278 9.72163 15.011963) // 675
    (1.278245 0.008727 4.223003) // 676
    (-2.721278 7.264374 16.797264) // 677
    (1.278172 0.006962 4.223789) // 678
    (-2.721278 4.48963 18.03266) // 679
    (1.278098 0.005072 4.224191) // 680
    (-2.721278 1.518668 18.664157) // 681
    (1.278024 0.00314 4.224191) // 682
    (-2.721278 -1.518668 18.664157) // 683
    (1.277951 0.00125 4.223789) // 684
    (-2.721278 -4.48963 18.03266) // 685
    (1.277877 -0.000515 4.223003) // 686
    (-2.721278 -7.264374 16.797264) // 687
    (1.277803 -0.002078 4.221868) // 688
    (-2.721278 -9.72163 15.011963) // 689
    (1.277729 -0.003371 4.220432) // 690
    (-2.721278 -11.754004 12.754783) // 691
    (1.277656 -0.004337 4.218759) // 692
    (-2.721278 -13.272671 10.124374) // 693
    (1.277582 -0.004934 4.216921) // 694
    (-2.721278 -14.211259 7.235696) // 695
    (1.261836 0.016075 4.217334) // 696
    (-3.216493 14.089634 7.209844) // 697
    (1.26175 0.01535 4.219566) // 698
    (-3.216493 13.159079 10.073799) // 699
    (1.261663 0.014176 4.221598) // 700
    (-3.216493 11.653409 12.681697) // 701
    (1.261576 0.012606 4.223342) // 702
    (-3.216493 9.638428 14.919559) // 703
    (1.261489 0.010708 4.224721) // 704
    (-3.216493 7.202203 16.689581) // 705
    (1.261402 0.008564 4.225676) // 706
    (-3.216493 4.451206 17.914404) // 707
    (1.261316 0.006268 4.226164) // 708
    (-3.216493 1.50567 18.540496) // 709
    (1.261229 0.003922 4.226164) // 710
    (-3.216493 -1.50567 18.540496) // 711
    (1.261142 0.001626 4.225676) // 712
    (-3.216493 -4.451206 17.914404) // 713
    (1.261055 -0.000517 4.224721) // 714
    (-3.216493 -7.202203 16.689581) // 715
    (1.260968 -0.002416 4.223342) // 716
    (-3.216493 -9.638428 14.919559) // 717
    (1.260882 -0.003986 4.221598) // 718
    (-3.216493 -11.653409 12.681697) // 719
    (1.260795 -0.005159 4.219566) // 720
    (-3.216493 -13.159079 10.073799) // 721
    (1.260708 -0.005885 4.217334) // 722
    (-3.216493 -14.089634 7.209844) // 723
    (1.243383 0.019232 4.21778) // 724
    (-3.707209 13.954105 7.181037) // 725
    (1.243283 0.018368 4.220439) // 726
    (-3.707209 13.0325 10.017443) // 727
    (1.243183 0.01697 4.222859) // 728
    (-3.707209 11.541313 12.600255) // 729
    (1.243084 0.0151 4.224937) // 730
    (-3.707209 9.545715 14.816591) // 731
    (1.242984 0.012838 4.22658) // 732
    (-3.707209 7.132924 16.569587) // 733
    (1.242884 0.010284 4.227717) // 734
    (-3.707209 4.408389 17.782627) // 735
    (1.242784 0.00755 4.228298) // 736
    (-3.707209 1.491187 18.402698) // 737
    (1.242684 0.004755 4.228298) // 738
    (-3.707209 -1.491187 18.402698) // 739
    (1.242584 0.002021 4.227717) // 740
    (-3.707209 -4.408389 17.782627) // 741
    (1.242484 -0.000533 4.22658) // 742
    (-3.707209 -7.132924 16.569587) // 743
    (1.242384 -0.002795 4.224937) // 744
    (-3.707209 -9.545715 14.816591) // 745
    (1.242284 -0.004665 4.222859) // 746
    (-3.707209 -11.541313 12.600255) // 747
    (1.242185 -0.006063 4.220439) // 748
    (-3.707209 -13.0325 10.017443) // 749
    (1.242085 -0.006927 4.21778) // 750
    (-3.707209 -13.954105 7.181037) // 751
    (1.223251 0.022586 4.218257) // 752
    (-4.19294 13.804804 7.149302) // 753
    (1.223139 0.021574 4.221371) // 754
    (-4.19294 12.89306 9.95536) // 755
    (1.223026 0.019936 4.224207) // 756
    (-4.19294 11.417828 12.510538) // 757
    (1.222914 0.017745 4.22664) // 758
    (-4.19294 9.443582 14.70316) // 759
    (1.222801 0.015096 4.228565) // 760
    (-4.19294 7.056606 16.4374) // 761
    (1.222688 0.012105 4.229897) // 762
    (-4.19294 4.361222 17.637462) // 763
    (1.222576 0.008902 4.230578) // 764
    (-4.19294 1.475232 18.250898) // 765
    (1.222463 0.005627 4.230578) // 766
    (-4.19294 -1.475232 18.250898) // 767
    (1.22235 0.002424 4.229897) // 768
    (-4.19294 -4.361222 17.637462) // 769
    (1.222238 -0.000567 4.228565) // 770
    (-4.19294 -7.056606 16.4374) // 771
    (1.222125 -0.003216 4.22664) // 772
    (-4.19294 -9.443582 14.70316) // 773
    (1.222012 -0.005408 4.224207) // 774
    (-4.19294 -11.417828 12.510538) // 775