FoamFile
{
    version     2.0;
format      ascii;
class       dictionary;
object      blockMeshDict;
}
convertToMeters 1;

vertices
(
    (2.140908 0.000499 0.0) // 0
    (2.143 0.0 0.0) // 1
    (10.606602 10.606602 0.0) // 2
    (10.095188 11.094466 0.0) // 3
    (1.693555 0.061369 2.360136) // 4
    (1.695 0.06104 2.3604) // 5
    (10.606602 10.606602 2.3604) // 6
    (10.095188 11.094466 2.360136) // 7
    (1.693525 0.0609 2.360131) // 8
    (10.606602 -10.606602 2.3604) // 9
    (10.095188 -11.094466 2.360131) // 10
    (2.140861 -0.000216 0.0) // 11
    (10.606602 -10.606602 0.0) // 12
    (10.095188 -11.094466 0.0) // 13
    (2.134644 0.001987 0.0) // 14
    (9.56136 11.557699 0.0) // 15
    (1.689225 0.062349 2.359346) // 16
    (9.56136 11.557699 2.359346) // 17
    (1.689105 0.060479 2.359324) // 18
    (9.56136 -11.557699 2.359324) // 19
    (2.134456 -0.000864 0.0) // 20
    (9.56136 -11.557699 0.0) // 21
    (2.124229 0.004449 0.0) // 22
    (9.006303 11.99527 0.0) // 23
    (1.682023 0.063971 2.358031) // 24
    (9.006303 11.99527 2.358031) // 25
    (1.681758 0.05978 2.357983) // 26
    (9.006303 -11.99527 2.357983) // 27
    (2.123812 -0.001937 0.0) // 28
    (9.006303 -11.99527 0.0) // 29
    (2.109702 0.007854 0.0) // 30
    (8.431251 12.406209 0.0) // 31
    (1.671972 0.066215 2.356198) // 32
    (8.431251 12.406209 2.356198) // 33
    (1.671508 0.058812 2.356113) // 34
    (8.431251 -12.406209 2.356113) // 35
    (2.108971 -0.003425 0.0) // 36
    (8.431251 -12.406209 0.0) // 37
    (2.091116 0.012162 0.0) // 38
    (7.837478 12.789602 0.0) // 39
    (1.659104 0.069056 2.353853) // 40
    (7.837478 12.789602 2.353853) // 41
    (1.658394 0.057581 2.353723) // 42
    (7.837478 -12.789602 2.353723) // 43
    (2.089999 -0.00531 0.0) // 44
    (7.837478 -12.789602 0.0) // 45
    (2.068537 0.01732 0.0) // 46
    (7.226305 13.1446 0.0) // 47
    (1.643458 0.07246 2.351004) // 48
    (7.226305 13.1446 2.351004) // 49
    (1.642464 0.056096 2.350823) // 50
    (7.226305 -13.1446 2.350823) // 51
    (2.066975 -0.007582 0.0) // 52
    (7.226305 -13.1446 0.0) // 53
    (2.04205 0.023273 0.0) // 54
    (6.599088 13.470414 0.0) // 55
    (1.625085 0.076393 2.347662) // 56
    (6.599088 13.470414 2.347662) // 57
    (1.623776 0.05437 2.347424) // 58
    (6.599088 -13.470414 2.347424) // 59
    (2.039995 -0.010216 0.0) // 60
    (6.599088 -13.470414 0.0) // 61
    (2.011752 0.029951 0.0) // 62
    (5.957218 13.766319 0.0) // 63
    (1.604044 0.080808 2.34384) // 64
    (5.957218 13.766319 2.34384) // 65
    (1.602398 0.052414 2.34354) // 66
    (5.957218 -13.766319 2.34354) // 67
    (2.009172 -0.01319 0.0) // 68
    (5.957218 -13.766319 0.0) // 69
    (1.977758 0.037282 0.0) // 70
    (5.302123 14.03166 0.0) // 71
    (1.580403 0.085662 2.339551) // 72
    (5.302123 14.03166 2.339551) // 73
    (1.578409 0.05024 2.339189) // 74
    (5.302123 -14.03166 2.339189) // 75
    (1.974637 -0.016484 0.0) // 76
    (5.302123 -14.03166 0.0) // 77
    (1.940191 0.045185 0.0) // 78
    (4.635255 14.265848 0.0) // 79
    (1.554239 0.0909 2.334812) // 80
    (4.635255 14.265848 2.334812) // 81
    (1.551897 0.047863 2.334387) // 82
    (4.635255 -14.265848 2.334387) // 83
    (1.936533 -0.020071 0.0) // 84
    (4.635255 -14.265848 0.0) // 85
    (1.899195 0.053581 0.0) // 86
    (3.958096 14.468361 0.0) // 87
    (1.52564 0.096472 2.329641) // 88
    (3.958096 14.468361 2.329641) // 89
    (1.522958 0.045296 2.329155) // 90
    (3.958096 -14.468361 2.329155) // 91
    (1.895016 -0.023929 0.0) // 92
    (3.958096 -14.468361 0.0) // 93
    (1.854923 0.062381 0.0) // 94
    (3.272149 14.638751 0.0) // 95
    (1.494699 0.102321 2.324057) // 96
    (3.272149 14.638751 2.324057) // 97
    (1.491699 0.042551 2.323515) // 98
    (3.272149 -14.638751 2.323515) // 99
    (1.850258 -0.028033 0.0) // 100
    (3.272149 -14.638751 0.0) // 101
    (1.807543 0.071501 0.0) // 102
    (2.578937 14.77664 0.0) // 103
    (1.461523 0.108392 2.318081) // 104
    (2.578937 14.77664 2.318081) // 105
    (1.458234 0.039645 2.317488) // 106
    (2.578937 -14.77664 2.317488) // 107
    (1.802441 -0.032357 0.0) // 108
    (2.578937 -14.77664 0.0) // 109
    (1.757239 0.080851 0.0) // 110
    (1.879999 14.881721 0.0) // 111
    (1.426226 0.114627 2.311737) // 112
    (1.879999 14.881721 2.311737) // 113
    (1.422687 0.03659 2.311101) // 114
    (1.879999 -14.881721 2.311101) // 115
    (1.751761 -0.036877 0.0) // 116
    (1.879999 -14.881721 0.0) // 117
    (1.704199 0.09034 0.0) // 118
    (1.176886 14.95376 0.0) // 119
    (1.38893 0.120965 2.305048) // 120
    (1.176886 14.95376 2.305048) // 121
    (1.385189 0.033403 2.304378) // 122
    (1.176886 -14.95376 2.304378) // 123
    (1.698426 -0.041563 0.0) // 124
    (1.176886 -14.95376 0.0) // 125
    (1.648629 0.099885 0.0) // 126
    (0.471161 14.992598 0.0) // 127
    (1.349765 0.12735 2.298041) // 128
    (0.471161 14.992598 2.298041) // 129
    (1.345879 0.030097 2.297346) // 130
    (0.471161 -14.992598 2.297346) // 131
    (1.642648 -0.046396 0.0) // 132
    (0.471161 -14.992598 0.0) // 133
    (1.590742 0.109394 0.0) // 134
    (-0.23561 14.998149 0.0) // 135
    (1.308597 0.133747 2.29296) // 136
    (-0.23561 14.998149 2.29296) // 137
    (1.304546 0.026791 2.29296) // 138
    (-0.23561 -14.998149 2.29296) // 139
    (1.584654 -0.05134 0.0) // 140
    (-0.23561 -14.998149 0.0) // 141
    (1.530766 0.118778 0.0) // 142
    (-0.941858 14.970401 0.0) // 143
    (1.265262 0.140116 2.29296) // 144
    (-0.941858 14.970401 2.29296) // 145
    (1.26121 0.023569 2.29296) // 146
    (-0.941858 -14.970401 2.29296) // 147
    (1.524678 -0.056369 0.0) // 148
    (-0.941858 -14.970401 0.0) // 149
    (1.468934 0.127952 0.0) // 150
    (-1.646015 14.909414 0.0) // 151
    (1.220588 0.146338 2.29296) // 152
    (-1.646015 14.909414 2.29296) // 153
    (1.216611 0.020308 2.29296) // 154
    (-1.646015 -14.909414 2.29296) // 155
    (1.462958 -0.061446 0.0) // 156
    (-1.646015 -14.909414 0.0) // 157
    (1.405487 0.136831 0.0) // 158
    (-2.346517 14.815325 0.0) // 159
    (1.174751 0.152354 2.29296) // 160
    (-2.346517 14.815325 2.29296) // 161
    (1.170925 0.017031 2.29296) // 162
    (-2.346517 -14.815325 2.29296) // 163
    (1.399737 -0.066534 0.0) // 164
    (-2.346517 -14.815325 0.0) // 165
    (1.340676 0.145325 0.0) // 166
    (-3.041809 14.688342 0.0) // 167
    (1.127932 0.158105 2.29296) // 168
    (-3.041809 14.688342 2.29296) // 169
    (1.124333 0.013765 2.29296) // 170
    (-3.041809 -14.688342 2.29296) // 171
    (1.335267 -0.071589 0.0) // 172
    (-3.041809 -14.688342 0.0) // 173
    (1.274753 0.153355 0.0) // 174
    (-3.730348 14.528747 0.0) // 175
    (1.080314 0.163535 2.29296) // 176
    (-3.730348 14.528747 2.29296) // 177
    (1.077021 0.010539 2.29296) // 178
    (-3.730348 -14.528747 2.29296) // 179
    (1.269805 -0.076567 0.0) // 180
    (-3.730348 -14.528747 0.0) // 181
    (1.207983 0.160834 0.0) // 182
    (-4.410605 14.336895 0.0) // 183
    (1.032086 0.168588 2.29296) // 184
    (-4.410605 14.336895 2.29296) // 185
    (1.029173 0.007388 2.29296) // 186
    (-4.410605 -14.336895 2.29296) // 187
    (1.203605 -0.081415 0.0) // 188
    (-4.410605 -14.336895 0.0) // 189
    (1.140633 0.167683 0.0) // 190
    (-5.081069 14.113212 0.0) // 191
    (0.983441 0.173207 2.29296) // 192
    (-5.081069 14.113212 2.29296) // 193
    (0.980976 0.004349 2.29296) // 194
    (-5.081069 -14.113212 2.29296) // 195
    (1.136928 -0.086076 0.0) // 196
    (-5.081069 -14.113212 0.0) // 197
    (1.072968 0.173823 0.0) // 198
    (-5.740251 13.858193 0.0) // 199
    (0.934573 0.177343 2.29296) // 200
    (-5.740251 13.858193 2.29296) // 201
    (0.932619 0.001464 2.29296) // 202
    (-5.740251 -13.858193 2.29296) // 203
    (1.070032 -0.090486 0.0) // 204
    (-5.740251 -13.858193 0.0) // 205
    (1.005264 0.179178 0.0) // 206
    (-6.386689 13.572406 0.0) // 207
    (0.885678 0.180942 2.29296) // 208
    (-6.386689 13.572406 2.29296) // 209
    (0.884289 -0.001223 2.29296) // 210
    (-6.386689 -13.572406 2.29296) // 211
    (1.003177 -0.094579 0.0) // 212
    (-6.386689 -13.572406 0.0) // 213
    (0.93779 0.183677 0.0) // 214
    (-7.018947 13.256484 0.0) // 215
    (0.836952 0.183958 2.29296) // 216
    (-7.018947 13.256484 2.29296) // 217
    (0.836173 -0.003669 2.29296) // 218
    (-7.018947 -13.256484 2.29296) // 219
    (0.93662 -0.098289 0.0) // 220
    (-7.018947 -13.256484 0.0) // 221
    (0.870823 0.187251 0.0) // 222
    (-7.635621 12.91113 0.0) // 223
    (0.788592 0.186346 2.29296) // 224
    (-7.635621 12.91113 2.29296) // 225
    (0.788457 -0.005825 2.29296) // 226
    (-7.635621 -12.91113 2.29296) // 227
    (0.870619 -0.101542 0.0) // 228
    (-7.635621 -12.91113 0.0) // 229
    (0.804133 0.189754 0.0) // 230
    (-8.235342 12.53711 0.0) // 231
    (0.740463 0.188002 2.29296) // 232
    (-8.235342 12.53711 2.29296) // 233
    (0.741655 -0.007703 2.29296) // 234
    (-8.235342 -12.53711 2.29296) // 235
    (0.805924 -0.104351 0.0) // 236
    (-8.235342 -12.53711 0.0) // 237
    (0.73836 0.190952 0.0) // 238
    (-8.816779 12.135255 0.0) // 239
    (0.693004 0.188763 2.29296) // 240
    (-8.816779 12.135255 2.29296) // 241
    (0.695703 -0.009385 2.29296) // 242
    (-8.816779 -12.135255 2.29296) // 243
    (0.742417 -0.106824 0.0) // 244
    (-8.816779 -12.135255 0.0) // 245
    (0.673905 0.190813 0.0) // 246
    (-9.37864 11.706456 0.0) // 247
    (0.646497 0.188607 2.29296) // 248
    (-9.37864 11.706456 2.29296) // 249
    (0.650688 -0.010814 2.29296) // 250
    (-9.37864 -11.706456 2.29296) // 251
    (0.680203 -0.108877 0.0) // 252
    (-9.37864 -11.706456 0.0) // 253
    (0.611049 0.189325 0.0) // 254
    (-9.919678 11.251666 0.0) // 255
    (0.601141 0.187531 2.29296) // 256
    (-9.919678 11.251666 2.29296) // 257
    (0.60677 -0.011936 2.29296) // 258
    (-9.919678 -11.251666 2.29296) // 259
    (0.619507 -0.110433 0.0) // 260
    (-9.919678 -11.251666 0.0) // 261
    (0.550055 0.186495 0.0) // 262
    (-10.438692 10.771894 0.0) // 263
    (0.55713 0.185539 2.29296) // 264
    (-10.438692 10.771894 2.29296) // 265
    (0.564111 -0.012694 2.29296) // 266
    (-10.438692 -10.771894 2.29296) // 267
    (0.560547 -0.111408 0.0) // 268
    (-10.438692 -10.771894 0.0) // 269
    (0.491188 0.182344 0.0) // 270
    (-10.934529 10.268207 0.0) // 271
    (0.514649 0.182649 2.29296) // 272
    (-10.934529 10.268207 2.29296) // 273
    (0.522864 -0.013035 2.29296) // 274
    (-10.934529 -10.268207 2.29296) // 275
    (0.503534 -0.11173 0.0) // 276
    (-10.934529 -10.268207 0.0) // 277
    (0.434701 0.176909 0.0) // 278
    (-11.406089 9.741721 0.0) // 279
    (0.473881 0.178889 2.29296) // 280
    (-11.406089 9.741721 2.29296) // 281
    (0.483179 -0.012914 2.29296) // 282
    (-11.406089 -9.741721 2.29296) // 283
    (0.448673 -0.111331 0.0) // 284
    (-11.406089 -9.741721 0.0) // 285
    (0.380835 0.170244 0.0) // 286
    (-11.852325 9.193606 0.0) // 287
    (0.434999 0.174297 2.29296) // 288
    (-11.852325 9.193606 2.29296) // 289
    (0.445201 -0.012285 2.29296) // 290
    (-11.852325 -9.193606 2.29296) // 291
    (0.396166 -0.11015 0.0) // 292
    (-11.852325 -9.193606 0.0) // 293
    (0.329814 0.162414 0.0) // 294
    (-12.272246 8.625079 0.0) // 295
    (0.398164 0.16892 2.29296) // 296
    (-12.272246 8.625079 2.29296) // 297
    (0.409069 -0.011113 2.29296) // 298
    (-12.272246 -8.625079 2.29296) // 299
    (0.346202 -0.10814 0.0) // 300
    (-12.272246 -8.625079 0.0) // 301
    (0.281856 0.153503 0.0) // 302
    (-12.664919 8.037402 0.0) // 303
    (0.363533 0.162819 2.29296) // 304
    (-12.664919 8.037402 2.29296) // 305
    (0.374918 -0.009369 2.29296) // 306
    (-12.664919 -8.037402 2.29296) // 307
    (0.298966 -0.10526 0.0) // 308
    (-12.664919 -8.037402 0.0) // 309
    (0.237155 0.143605 0.0) // 310
    (-13.029473 7.43188 0.0) // 311
    (0.331246 0.156057 2.29296) // 312
    (-13.029473 7.43188 2.29296) // 313
    (0.342876 -0.007027 2.29296) // 314
    (-13.029473 -7.43188 2.29296) // 315
    (0.254633 -0.101477 0.0) // 316
    (-13.029473 -7.43188 0.0) // 317
    (0.195898 0.132819 0.0) // 318
    (-13.365098 6.809857 0.0) // 319
    (0.301436 0.148706 2.29296) // 320
    (-13.365098 6.809857 2.29296) // 321
    (0.313068 -0.004072 2.29296) // 322
    (-13.365098 -6.809857 2.29296) // 323
    (0.213379 -0.096776 0.0) // 324
    (-13.365098 -6.809857 0.0) // 325
    (0.15825 0.121257 0.0) // 326
    (-13.671049 6.172715 0.0) // 327
    (0.274223 0.140844 2.29296) // 328
    (-13.671049 6.172715 2.29296) // 329
    (0.285605 -0.000493 2.29296) // 330
    (-13.671049 -6.172715 2.29296) // 331
    (0.175355 -0.091144 0.0) // 332
    (-13.671049 -6.172715 0.0) // 333
    (0.124354 0.109036 0.0) // 334
    (-13.946647 5.521868 0.0) // 335
    (0.24971 0.13255 2.29296) // 336
    (-13.946647 5.521868 2.29296) // 337
    (0.260602 0.003714 2.29296) // 338
    (-13.946647 -5.521868 2.29296) // 339
    (0.140722 -0.084578 0.0) // 340
    (-13.946647 -5.521868 0.0) // 341
    (0.094341 0.096268 0.0) // 342
    (-14.19128 4.858761 0.0) // 343
    (0.227994 0.123903 2.29296) // 344
    (-14.19128 4.858761 2.29296) // 345
    (0.238157 0.008549 2.29296) // 346
    (-14.19128 -4.858761 2.29296) // 347
    (0.109614 -0.077086 0.0) // 348
    (-14.19128 -4.858761 0.0) // 349
    (0.068323 0.083067 0.0) // 350
    (-14.404405 4.184867 0.0) // 351
    (0.209154 0.114982 2.29296) // 352
    (-14.404405 4.184867 2.29296) // 353
    (0.218364 0.014006 2.29296) // 354
    (-14.404405 -4.184867 2.29296) // 355
    (0.082165 -0.068679 0.0) // 356
    (-14.404405 -4.184867 0.0) // 357
    (0.046392 0.069538 0.0) // 358
    (-14.585549 3.50168 0.0) // 359
    (0.193258 0.105859 2.29296) // 360
    (-14.585549 3.50168 2.29296) // 361
    (0.20131 0.02008 2.29296) // 362
    (-14.585549 -3.50168 2.29296) // 363
    (0.058493 -0.05937 0.0) // 364
    (-14.585549 -3.50168 0.0) // 365
    (0.028622 0.055782 0.0) // 366
    (-14.734309 2.81072 0.0) // 367
    (0.18036 0.096603 2.29296) // 368
    (-14.734309 2.81072 2.29296) // 369
    (0.18707 0.026758 2.29296) // 370
    (-14.734309 -2.81072 2.29296) // 371
    (0.038705 -0.049182 0.0) // 372
    (-14.734309 -2.81072 0.0) // 373
    (0.015067 0.041885 0.0) // 374
    (-14.850355 2.113518 0.0) // 375
    (0.170502 0.087274 2.29296) // 376
    (-14.850355 2.113518 2.29296) // 377
    (0.175709 0.03403 2.29296) // 378
    (-14.850355 -2.113518 2.29296) // 379
    (0.022892 -0.03813 0.0) // 380
    (-14.850355 -2.113518 0.0) // 381
    (0.005767 0.027921 0.0) // 382
    (-14.933429 1.411625 0.0) // 383
    (0.163712 0.077923 2.29296) // 384
    (-14.933429 1.411625 2.29296) // 385
    (0.167281 0.041884 2.29296) // 386
    (-14.933429 -1.411625 2.29296) // 387
    (0.011131 -0.026239 0.0) // 388
    (-14.933429 -1.411625 0.0) // 389
    (0.000744 0.013947 0.0) // 390
    (-14.983348 0.706597 0.0) // 391
    (0.160008 0.068588 2.29296) // 392
    (-14.983348 0.706597 2.29296) // 393
    (0.161831 0.05031 2.29296) // 394
    (-14.983348 -0.706597 2.29296) // 395
    (0.003485 -0.013522 0.0) // 396
    (-14.983348 -0.706597 0.0) // 397
    (0.0 0.0 0.0) // 398
    (-15.0 0.0 0.0) // 399
    (0.159392 0.059296 2.29296) // 400
    (-15.0 0.0 2.29296) // 401
    (11.277597 9.890187 0.0) // 402
    (11.277597 9.890187 2.3604) // 403
    (11.277597 -9.890187 2.3604) // 404
    (11.277597 -9.890187 0.0) // 405
    (11.9003 9.131421 0.0) // 406
    (11.9003 9.131421 2.3604) // 407
    (11.9003 -9.131421 2.3604) // 408
    (11.9003 -9.131421 0.0) // 409
    (12.472044 8.333553 0.0) // 410
    (12.472044 8.333553 2.3604) // 411
    (12.472044 -8.333553 2.3604) // 412
    (12.472044 -8.333553 0.0) // 413
    (12.990381 7.5 0.0) // 414
    (12.990381 7.5 2.3604) // 415
    (12.990381 -7.5 2.3604) // 416
    (12.990381 -7.5 0.0) // 417
    (13.453091 6.63433 0.0) // 418
    (13.453091 6.63433 2.3604) // 419
    (13.453091 -6.63433 2.3604) // 420
    (13.453091 -6.63433 0.0) // 421
    (13.858193 5.740251 0.0) // 422
    (13.858193 5.740251 2.3604) // 423
    (13.858193 -5.740251 2.3604) // 424
    (13.858193 -5.740251 0.0) // 425
    (14.203952 4.821592 0.0) // 426
    (14.203952 4.821592 2.3604) // 427
    (14.203952 -4.821592 2.3604) // 428
    (14.203952 -4.821592 0.0) // 429
    (14.488887 3.882286 0.0) // 430
    (14.488887 3.882286 2.3604) // 431
    (14.488887 -3.882286 2.3604) // 432
    (14.488887 -3.882286 0.0) // 433
    (14.711779 2.926355 0.0) // 434
    (14.711779 2.926355 2.3604) // 435
    (14.711779 -2.926355 2.3604) // 436
    (14.711779 -2.926355 0.0) // 437
    (14.871673 1.957893 0.0) // 438
    (14.871673 1.957893 2.3604) // 439
    (14.871673 -1.957893 2.3604) // 440
    (14.871673 -1.957893 0.0) // 441
    (14.967884 0.981047 0.0) // 442
    (14.967884 0.981047 2.3604) // 443
    (14.967884 -0.981047 2.3604) // 444
    (14.967884 -0.981047 0.0) // 445
    (15.0 0.0 0.0) // 446
    (15.0 0.0 2.3604) // 447
    (1.341973 0.109207 4.215) // 448
    (1.343 0.109 4.215) // 449
    (10.606602 10.606602 4.215) // 450
    (10.095188 11.094466 4.215) // 451
    (1.341955 0.108932 4.215) // 452
    (10.606602 -10.606602 4.215) // 453
    (10.095188 -11.094466 4.215) // 454
    (1.338897 0.109824 4.215) // 455
    (9.56136 11.557699 4.215) // 456
    (1.338824 0.108726 4.215) // 457
    (9.56136 -11.557699 4.215) // 458
    (1.333782 0.110845 4.215) // 459
    (9.006303 11.99527 4.215) // 460
    (1.33362 0.108386 4.215) // 461
    (9.006303 -11.99527 4.215) // 462
    (1.326647 0.112256 4.215) // 463
    (8.431251 12.406209 4.215) // 464
    (1.326365 0.107914 4.215) // 465
    (8.431251 -12.406209 4.215) // 466
    (1.31752 0.114041 4.215) // 467
    (7.837478 12.789602 4.215) // 468
    (1.317089 0.107315 4.215) // 469
    (7.837478 -12.789602 4.215) // 470
    (1.306434 0.116179 4.215) // 471
    (7.226305 13.1446 4.215) // 472
    (1.305832 0.106592 4.215) // 473
    (7.226305 -13.1446 4.215) // 474
    (1.29343 0.118645 4.215) // 475
    (6.599088 13.470414 4.215) // 476
    (1.292639 0.105753 4.215) // 477
    (6.599088 -13.470414 4.215) // 478
    (1.278557 0.12141 4.215) // 479
    (5.957218 13.766319 4.215) // 480
    (1.277564 0.104802 4.215) // 481
    (5.957218 -13.766319 4.215) // 482
    (1.261873 0.124444 4.215) // 483
    (5.302123 14.03166 4.215) // 484
    (1.260672 0.103746 4.215) // 485
    (5.302123 -14.03166 4.215) // 486
    (1.243438 0.127713 4.215) // 487
    (4.635255 14.265848 4.215) // 488
    (1.24203 0.102592 4.215) // 489
    (4.635255 -14.265848 4.215) // 490
    (1.223324 0.131183 4.215) // 491
    (3.958096 14.468361 4.215) // 492
    (1.221715 0.101344 4.215) // 493
    (3.958096 -14.468361 4.215) // 494
    (1.201607 0.134818 4.215) // 495
    (3.272149 14.638751 4.215) // 496
    (1.19981 0.100011 4.215) // 497
    (3.272149 -14.638751 4.215) // 498
    (1.178369 0.138581 4.215) // 499
    (2.578937 14.77664 4.215) // 500
    (1.176405 0.098599 4.215) // 501
    (2.578937 -14.77664 4.215) // 502
    (1.153702 0.142434 4.215) // 503
    (1.879999 14.881721 4.215) // 504
    (1.151593 0.097112 4.215) // 505
    (1.879999 -14.881721 4.215) // 506
    (1.127699 0.14634 4.215) // 507
    (1.176886 14.95376 4.215) // 508
    (1.125476 0.095559 4.215) // 509
    (1.176886 -14.95376 4.215) // 510
    (1.100461 0.150261 4.215) // 511
    (0.471161 14.992598 4.215) // 512
    (1.098158 0.093947 4.215) // 513
    (0.471161 -14.992598 4.215) // 514
    (1.072093 0.154161 4.215) // 515
    (-0.23561 14.998149 4.215) // 516
    (1.069749 0.092283 4.215) // 517
    (-0.23561 -14.998149 4.215) // 518
    (1.042706 0.158002 4.215) // 519
    (-0.941858 14.970401 4.215) // 520
    (1.040362 0.090576 4.215) // 521
    (-0.941858 -14.970401 4.215) // 522
    (1.012416 0.16175 4.215) // 523
    (-1.646015 14.909414 4.215) // 524
    (1.010114 0.088837 4.215) // 525
    (-1.646015 -14.909414 4.215) // 526
    (0.981341 0.165366 4.215) // 527
    (-2.346517 14.815325 4.215) // 528
    (0.979127 0.087077 4.215) // 529
    (-2.346517 -14.815325 4.215) // 530
    (0.949603 0.168817 4.215) // 531
    (-3.041809 14.688342 4.215) // 532
    (0.947522 0.085311 4.215) // 533
    (-3.041809 -14.688342 4.215) // 534
    (0.917328 0.172068 4.215) // 535
    (-3.730348 14.528747 4.215) // 536
    (0.915423 0.083554 4.215) // 537
    (-3.730348 -14.528747 4.215) // 538
    (0.884642 0.175087 4.215) // 539
    (-4.410605 14.336895 4.215) // 540
    (0.882957 0.081826 4.215) // 541
    (-4.410605 -14.336895 4.215) // 542
    (0.851678 0.177838 4.215) // 543
    (-5.081069 14.113212 4.215) // 544
    (0.850252 0.080147 4.215) // 545
    (-5.081069 -14.113212 4.215) // 546
    (0.818565 0.180293 4.215) // 547
    (-5.740251 13.858193 4.215) // 548
    (0.817435 0.078541 4.215) // 549
    (-5.740251 -13.858193 4.215) // 550
    (0.785436 0.18242 4.215) // 551
    (-6.386689 13.572406 4.215) // 552
    (0.784633 0.077031 4.215) // 553
    (-6.386689 -13.572406 4.215) // 554
    (0.752425 0.184194 4.215) // 555
    (-7.018947 13.256484 4.215) // 556
    (0.751975 0.075645 4.215) // 557
    (-7.018947 -13.256484 4.215) // 558
    (0.719663 0.185587 4.215) // 559
    (-7.635621 12.91113 4.215) // 560
    (0.719586 0.074409 4.215) // 561
    (-7.635621 -12.91113 4.215) // 562
    (0.687093 0.186534 4.215) // 563
    (-8.235342 12.53711 4.215) // 564
    (0.687782 0.073311 4.215) // 565
    (-8.235342 -12.53711 4.215) // 566
    (0.654985 0.186928 4.215) // 567
    (-8.816779 12.135255 4.215) // 568
    (0.656547 0.072292 4.215) // 569
    (-8.816779 -12.135255 4.215) // 570
    (0.623522 0.186759 4.215) // 571
    (-9.37864 11.706456 4.215) // 572
    (0.625947 0.071386 4.215) // 573
    (-9.37864 -11.706456 4.215) // 574
    (0.592837 0.186027 4.215) // 575
    (-9.919678 11.251666 4.215) // 576
    (0.596094 0.070628 4.215) // 577
    (-9.919678 -11.251666 4.215) // 578
    (0.56306 0.184738 4.215) // 579
    (-10.438692 10.771894 4.215) // 580
    (0.567099 0.070052 4.215) // 581
    (-10.438692 -10.771894 4.215) // 582
    (0.534315 0.182905 4.215) // 583
    (-10.934529 10.268207 4.215) // 584
    (0.539068 0.069694 4.215) // 585
    (-10.934529 -10.268207 4.215) // 586
    (0.506723 0.180548 4.215) // 587
    (-11.406089 9.741721 4.215) // 588
    (0.512102 0.069583 4.215) // 589
    (-11.406089 -9.741721 4.215) // 590
    (0.480401 0.177694 4.215) // 591
    (-11.852325 9.193606 4.215) // 592
    (0.486304 0.069749 4.215) // 593
    (-11.852325 -9.193606 4.215) // 594
    (0.455458 0.174374 4.215) // 595
    (-12.272246 8.625079 4.215) // 596
    (0.461768 0.070218 4.215) // 597
    (-12.272246 -8.625079 4.215) // 598
    (0.431998 0.170628 4.215) // 599
    (-12.664919 8.037402 4.215) // 600
    (0.438585 0.07101 4.215) // 601
    (-12.664919 -8.037402 4.215) // 602
    (0.410116 0.166495 4.215) // 603
    (-13.029473 7.43188 4.215) // 604
    (0.416844 0.072145 4.215) // 605
    (-13.029473 -7.43188 4.215) // 606
    (0.389901 0.162024 4.215) // 607
    (-13.365098 6.809857 4.215) // 608
    (0.396631 0.073636 4.215) // 609
    (-13.365098 -6.809857 4.215) // 610
    (0.371435 0.157262 4.215) // 611
    (-13.671049 6.172715 4.215) // 612
    (0.378021 0.075493 4.215) // 613
    (-13.671049 -6.172715 4.215) // 614
    (0.354788 0.15226 4.215) // 615
    (-13.946647 5.521868 4.215) // 616
    (0.361089 0.077724 4.215) // 617
    (-13.946647 -5.521868 4.215) // 618
    (0.340026 0.147068 4.215) // 619
    (-14.19128 4.858761 4.215) // 620
    (0.345905 0.080331 4.215) // 621
    (-14.19128 -4.858761 4.215) // 622
    (0.327203 0.141734 4.215) // 623
    (-14.404405 4.184867 4.215) // 624
    (0.332531 0.083316 4.215) // 625
    (-14.404405 -4.184867 4.215) // 626
    (0.316366 0.136304 4.215) // 627
    (-14.585549 3.50168 4.215) // 628
    (0.321024 0.086678 4.215) // 629
    (-14.585549 -3.50168 4.215) // 630
    (0.307553 0.130821 4.215) // 631
    (-14.734309 2.81072 4.215) // 632
    (0.311435 0.090413 4.215) // 633
    (-14.734309 -2.81072 4.215) // 634
    (0.300793 0.125321 4.215) // 635
    (-14.850355 2.113518 4.215) // 636
    (0.303806 0.094517 4.215) // 637
    (-14.850355 -2.113518 4.215) // 638
    (0.296108 0.119837 4.215) // 639
    (-14.933429 1.411625 4.215) // 640
    (0.298172 0.098987 4.215) // 641
    (-14.933429 -1.411625 4.215) // 642
    (0.293508 0.114391 4.215) // 643
    (-14.983348 0.706597 4.215) // 644
    (0.294563 0.103816 4.215) // 645
    (-14.983348 -0.706597 4.215) // 646
    (0.293 0.109 4.215) // 647
    (-15.0 0.0 4.215) // 648
    (11.277597 9.890187 4.215) // 649
    (11.277597 -9.890187 4.215) // 650
    (11.9003 9.131421 4.215) // 651
    (11.9003 -9.131421 4.215) // 652
    (12.472044 8.333553 4.215) // 653
    (12.472044 -8.333553 4.215) // 654
    (12.990381 7.5 4.215) // 655
    (12.990381 -7.5 4.215) // 656
    (13.453091 6.63433 4.215) // 657
    (13.453091 -6.63433 4.215) // 658
    (13.858193 5.740251 4.215) // 659
    (13.858193 -5.740251 4.215) // 660
    (14.203952 4.821592 4.215) // 661
    (14.203952 -4.821592 4.215) // 662
    (14.488887 3.882286 4.215) // 663
    (14.488887 -3.882286 4.215) // 664
    (14.711779 2.926355 4.215) // 665
    (14.711779 -2.926355 4.215) // 666
    (14.871673 1.957893 4.215) // 667
    (14.871673 -1.957893 4.215) // 668
    (14.967884 0.981047 4.215) // 669
    (14.967884 -0.981047 4.215) // 670
    (15.0 0.0 4.215) // 671
);

blocks
(
  hex ( 0 1 2 3 4 5 6 7 ) (1 1 2) simpleGrading (1 1 1) // 0 
  hex ( 8 5 9 10 11 1 12 13 ) (1 1 2) simpleGrading (1 1 1) // 1 
  hex ( 14 0 3 15 16 4 7 17 ) (1 1 2) simpleGrading (1 1 1) // 2 
  hex ( 18 8 10 19 20 11 13 21 ) (1 1 2) simpleGrading (1 1 1) // 3 
  hex ( 22 14 15 23 24 16 17 25 ) (1 1 2) simpleGrading (1 1 1) // 4 
  hex ( 26 18 19 27 28 20 21 29 ) (1 1 2) simpleGrading (1 1 1) // 5 
  hex ( 30 22 23 31 32 24 25 33 ) (1 1 2) simpleGrading (1 1 1) // 6 
  hex ( 34 26 27 35 36 28 29 37 ) (1 1 2) simpleGrading (1 1 1) // 7 
  hex ( 38 30 31 39 40 32 33 41 ) (1 1 2) simpleGrading (1 1 1) // 8 
  hex ( 42 34 35 43 44 36 37 45 ) (1 1 2) simpleGrading (1 1 1) // 9 
  hex ( 46 38 39 47 48 40 41 49 ) (1 1 2) simpleGrading (1 1 1) // 10 
  hex ( 50 42 43 51 52 44 45 53 ) (1 1 2) simpleGrading (1 1 1) // 11 
  hex ( 54 46 47 55 56 48 49 57 ) (1 1 2) simpleGrading (1 1 1) // 12 
  hex ( 58 50 51 59 60 52 53 61 ) (1 1 2) simpleGrading (1 1 1) // 13 
  hex ( 62 54 55 63 64 56 57 65 ) (1 1 2) simpleGrading (1 1 1) // 14 
  hex ( 66 58 59 67 68 60 61 69 ) (1 1 2) simpleGrading (1 1 1) // 15 
  hex ( 70 62 63 71 72 64 65 73 ) (1 1 2) simpleGrading (1 1 1) // 16 
  hex ( 74 66 67 75 76 68 69 77 ) (1 1 2) simpleGrading (1 1 1) // 17 
  hex ( 78 70 71 79 80 72 73 81 ) (1 1 2) simpleGrading (1 1 1) // 18 
  hex ( 82 74 75 83 84 76 77 85 ) (1 1 2) simpleGrading (1 1 1) // 19 
  hex ( 86 78 79 87 88 80 81 89 ) (1 1 2) simpleGrading (1 1 1) // 20 
  hex ( 90 82 83 91 92 84 85 93 ) (1 1 2) simpleGrading (1 1 1) // 21 
  hex ( 94 86 87 95 96 88 89 97 ) (1 1 2) simpleGrading (1 1 1) // 22 
  hex ( 98 90 91 99 100 92 93 101 ) (1 1 2) simpleGrading (1 1 1) // 23 
  hex ( 102 94 95 103 104 96 97 105 ) (1 1 2) simpleGrading (1 1 1) // 24 
  hex ( 106 98 99 107 108 100 101 109 ) (1 1 2) simpleGrading (1 1 1) // 25 
  hex ( 110 102 103 111 112 104 105 113 ) (1 1 2) simpleGrading (1 1 1) // 26 
  hex ( 114 106 107 115 116 108 109 117 ) (1 1 2) simpleGrading (1 1 1) // 27 
  hex ( 118 110 111 119 120 112 113 121 ) (1 1 2) simpleGrading (1 1 1) // 28 
  hex ( 122 114 115 123 124 116 117 125 ) (1 1 2) simpleGrading (1 1 1) // 29 
  hex ( 126 118 119 127 128 120 121 129 ) (1 1 2) simpleGrading (1 1 1) // 30 
  hex ( 130 122 123 131 132 124 125 133 ) (1 1 2) simpleGrading (1 1 1) // 31 
  hex ( 134 126 127 135 136 128 129 137 ) (1 1 2) simpleGrading (1 1 1) // 32 
  hex ( 138 130 131 139 140 132 133 141 ) (1 1 2) simpleGrading (1 1 1) // 33 
  hex ( 142 134 135 143 144 136 137 145 ) (1 1 2) simpleGrading (1 1 1) // 34 
  hex ( 146 138 139 147 148 140 141 149 ) (1 1 2) simpleGrading (1 1 1) // 35 
  hex ( 150 142 143 151 152 144 145 153 ) (1 1 2) simpleGrading (1 1 1) // 36 
  hex ( 154 146 147 155 156 148 149 157 ) (1 1 2) simpleGrading (1 1 1) // 37 
  hex ( 158 150 151 159 160 152 153 161 ) (1 1 2) simpleGrading (1 1 1) // 38 
  hex ( 162 154 155 163 164 156 157 165 ) (1 1 2) simpleGrading (1 1 1) // 39 
  hex ( 166 158 159 167 168 160 161 169 ) (1 1 2) simpleGrading (1 1 1) // 40 
  hex ( 170 162 163 171 172 164 165 173 ) (1 1 2) simpleGrading (1 1 1) // 41 
  hex ( 174 166 167 175 176 168 169 177 ) (1 1 2) simpleGrading (1 1 1) // 42 
  hex ( 178 170 171 179 180 172 173 181 ) (1 1 2) simpleGrading (1 1 1) // 43 
  hex ( 182 174 175 183 184 176 177 185 ) (1 1 2) simpleGrading (1 1 1) // 44 
  hex ( 186 178 179 187 188 180 181 189 ) (1 1 2) simpleGrading (1 1 1) // 45 
  hex ( 190 182 183 191 192 184 185 193 ) (1 1 2) simpleGrading (1 1 1) // 46 
  hex ( 194 186 187 195 196 188 189 197 ) (1 1 2) simpleGrading (1 1 1) // 47 
  hex ( 198 190 191 199 200 192 193 201 ) (1 1 2) simpleGrading (1 1 1) // 48 
  hex ( 202 194 195 203 204 196 197 205 ) (1 1 2) simpleGrading (1 1 1) // 49 
  hex ( 206 198 199 207 208 200 201 209 ) (1 1 2) simpleGrading (1 1 1) // 50 
  hex ( 210 202 203 211 212 204 205 213 ) (1 1 2) simpleGrading (1 1 1) // 51 
  hex ( 214 206 207 215 216 208 209 217 ) (1 1 2) simpleGrading (1 1 1) // 52 
  hex ( 218 210 211 219 220 212 213 221 ) (1 1 2) simpleGrading (1 1 1) // 53 
  hex ( 222 214 215 223 224 216 217 225 ) (1 1 2) simpleGrading (1 1 1) // 54 
  hex ( 226 218 219 227 228 220 221 229 ) (1 1 2) simpleGrading (1 1 1) // 55 
  hex ( 230 222 223 231 232 224 225 233 ) (1 1 2) simpleGrading (1 1 1) // 56 
  hex ( 234 226 227 235 236 228 229 237 ) (1 1 2) simpleGrading (1 1 1) // 57 
  hex ( 238 230 231 239 240 232 233 241 ) (1 1 2) simpleGrading (1 1 1) // 58 