FoamFile
{
    version     2.0;
format      ascii;
class       dictionary;
object      blockMeshDict;
}
convertToMeters 1;

vertices
(
    (2.14321 0.003144 0.0) // 0
    (2.141118 0.00363 0.0) // 1
    (1.342053 0.001412 4.215) // 2
    (1.343081 0.00121 4.215) // 3
    (2.14321 3.0 0.0) // 4
    (1.981658 2.99852 0.0) // 5
    (1.206661 2.99852 4.215) // 6
    (1.343081 3.0 4.215) // 7
    (2.13485 0.005081 0.0) // 8
    (1.338975 0.002015 4.215) // 9
    (1.820265 2.99408 0.0) // 10
    (1.070377 2.99408 4.215) // 11
    (2.124429 0.007483 0.0) // 12
    (1.333859 0.003012 4.215) // 13
    (1.659191 2.986686 0.0) // 14
    (0.934361 2.986686 4.215) // 15
    (2.109895 0.010805 0.0) // 16
    (1.326721 0.004392 4.215) // 17
    (1.498595 2.976344 0.0) // 18
    (0.798748 2.976344 4.215) // 19
    (2.091298 0.015007 0.0) // 20
    (1.31759 0.006137 4.215) // 21
    (1.338635 2.963065 0.0) // 22
    (0.663673 2.963065 4.215) // 23
    (2.068709 0.020046 0.0) // 24
    (1.306499 0.008228 4.215) // 25
    (1.179469 2.946862 0.0) // 26
    (0.529269 2.946862 4.215) // 27
    (2.042208 0.02586 0.0) // 28
    (1.293491 0.010641 4.215) // 29
    (1.021254 2.92775 0.0) // 30
    (0.395667 2.92775 4.215) // 31
    (2.011898 0.032387 0.0) // 32
    (1.278614 0.013348 4.215) // 33
    (0.864146 2.905749 0.0) // 34
    (0.263001 2.905749 4.215) // 35
    (1.977888 0.039555 0.0) // 36
    (1.261923 0.01632 4.215) // 37
    (0.7083 2.880881 0.0) // 38
    (0.1314 2.880881 4.215) // 39
    (1.940309 0.04729 0.0) // 40
    (1.243483 0.019524 4.215) // 41
    (0.553871 2.85317 0.0) // 42
    (0.000995 2.85317 4.215) // 43
    (1.899298 0.055512 0.0) // 44
    (1.223364 0.022928 4.215) // 45
    (0.40101 2.822642 0.0) // 46
    (-0.128085 2.822642 4.215) // 47
    (1.855013 0.064138 0.0) // 48
    (1.201642 0.026495 4.215) // 49
    (0.249868 2.789329 0.0) // 50
    (-0.255714 2.789329 4.215) // 51
    (1.807623 0.073085 0.0) // 52
    (1.1784 0.030191 4.215) // 53
    (0.100595 2.753264 0.0) // 54
    (-0.381765 2.753264 4.215) // 55
    (1.757305 0.082263 0.0) // 56
    (1.153727 0.033978 4.215) // 57
    (-0.046662 2.714481 0.0) // 58
    (-0.506113 2.714481 4.215) // 59
    (1.704253 0.091592 0.0) // 60
    (1.12772 0.037821 4.215) // 61
    (-0.191758 2.67302 0.0) // 62
    (-0.628637 2.67302 4.215) // 63
    (1.648672 0.10098 0.0) // 64
    (1.100477 0.041683 4.215) // 65
    (-0.33455 2.62892 0.0) // 66
    (-0.749214 2.62892 4.215) // 67
    (1.590779 0.110341 0.0) // 68
    (1.072106 0.045526 4.215) // 69
    (-0.474897 2.582226 0.0) // 70
    (-0.867727 2.582226 4.215) // 71
    (1.530796 0.11959 0.0) // 72
    (1.042717 0.049315 4.215) // 73
    (-0.61266 2.532984 0.0) // 74
    (-0.984058 2.532984 4.215) // 75
    (1.468956 0.128642 0.0) // 76
    (1.012424 0.053016 4.215) // 77
    (-0.747703 2.481242 0.0) // 78
    (-1.098093 2.481242 4.215) // 79
    (1.405504 0.137407 0.0) // 80
    (0.981347 0.056589 4.215) // 81
    (-0.879893 2.427051 0.0) // 82
    (-1.209718 2.427051 4.215) // 83
    (1.340687 0.145803 0.0) // 84
    (0.949608 0.060001 4.215) // 85
    (-1.0091 2.370465 0.0) // 86
    (-1.318824 2.370465 4.215) // 87
    (1.274761 0.153745 0.0) // 88
    (0.917331 0.063219 4.215) // 89
    (-1.135195 2.31154 0.0) // 90
    (-1.425303 2.31154 4.215) // 91
    (1.20799 0.161151 0.0) // 92
    (0.884645 0.066208 4.215) // 93
    (-1.258056 2.250333 0.0) // 94
    (-1.52905 2.250333 4.215) // 95
    (1.140635 0.167936 0.0) // 96
    (0.85168 0.068935 4.215) // 97
    (-1.37756 2.186906 0.0) // 98
    (-1.629963 2.186906 4.215) // 99
    (1.07297 0.17402 0.0) // 100
    (0.818566 0.071369 4.215) // 101
    (-1.493589 2.12132 0.0) // 102
    (-1.727941 2.12132 4.215) // 103
    (1.005264 0.179331 0.0) // 104
    (0.785437 0.073479 4.215) // 105
    (-1.606029 2.053641 0.0) // 106
    (-1.822889 2.053641 4.215) // 107
    (0.937792 0.183792 0.0) // 108
    (0.752425 0.075238 4.215) // 109
    (-1.714769 1.983936 0.0) // 110
    (-1.914712 1.983936 4.215) // 111
    (0.870823 0.187337 0.0) // 112
    (0.719663 0.07662 4.215) // 113
    (-1.819701 1.912272 0.0) // 114
    (-2.00332 1.912272 4.215) // 115
    (0.804133 0.189818 0.0) // 116
    (0.687093 0.077558 4.215) // 117
    (-1.920723 1.838721 0.0) // 118
    (-2.088626 1.838721 4.215) // 119
    (0.738358 0.190997 0.0) // 120
    (0.654984 0.077946 4.215) // 121
    (-2.017734 1.763356 0.0) // 122
    (-2.170545 1.763356 4.215) // 123
    (0.673905 0.190845 0.0) // 124
    (0.623522 0.077771 4.215) // 125
    (-2.110639 1.68625 0.0) // 126
    (-2.248997 1.68625 4.215) // 127
    (0.611046 0.189347 0.0) // 128
    (0.592837 0.077035 4.215) // 129
    (-2.199346 1.60748 0.0) // 130
    (-2.323904 1.60748 4.215) // 131
    (0.550055 0.18651 0.0) // 132
    (0.56306 0.075743 4.215) // 133
    (-2.283767 1.527124 0.0) // 134
    (-2.395191 1.527124 4.215) // 135
    (0.491188 0.182354 0.0) // 136
    (0.534314 0.073908 4.215) // 137
    (-2.363819 1.445261 0.0) // 138
    (-2.46279 1.445261 4.215) // 139
    (0.434701 0.176915 0.0) // 140
    (0.506723 0.07155 4.215) // 141
    (-2.439424 1.361971 0.0) // 142
    (-2.526633 1.361971 4.215) // 143
    (0.380835 0.170246 0.0) // 144
    (0.480401 0.068695 4.215) // 145
    (-2.510506 1.277338 0.0) // 146
    (-2.586656 1.277338 4.215) // 147
    (0.329814 0.162416 0.0) // 148
    (0.455458 0.065375 4.215) // 149
    (-2.576995 1.191444 0.0) // 150
    (-2.642802 1.191444 4.215) // 151
    (0.281856 0.153503 0.0) // 152
    (0.431998 0.061628 4.215) // 153
    (-2.638826 1.104374 0.0) // 154
    (-2.695014 1.104374 4.215) // 155
    (0.237155 0.143605 0.0) // 156
    (0.410116 0.057495 4.215) // 157
    (-2.695937 1.016214 0.0) // 158
    (-2.74324 1.016214 4.215) // 159
    (0.195898 0.132819 0.0) // 160
    (0.389901 0.053024 4.215) // 161
    (-2.748273 0.927051 0.0) // 162
    (-2.787434 0.927051 4.215) // 163
    (0.15825 0.12126 0.0) // 164
    (0.371435 0.048262 4.215) // 165
    (-2.795782 0.836973 0.0) // 166
    (-2.827552 0.836973 4.215) // 167
    (0.124354 0.109036 0.0) // 168
    (0.354788 0.04326 4.215) // 169
    (-2.838417 0.74607 0.0) // 170
    (-2.863554 0.74607 4.215) // 171
    (0.094341 0.096268 0.0) // 172
    (0.340026 0.038068 4.215) // 173
    (-2.876135 0.65443 0.0) // 174
    (-2.895405 0.65443 4.215) // 175
    (0.068323 0.083067 0.0) // 176
    (0.327203 0.032734 4.215) // 177
    (-2.9089 0.562144 0.0) // 178
    (-2.923072 0.562144 4.215) // 179
    (0.046392 0.069538 0.0) // 180
    (0.316366 0.027304 4.215) // 181
    (-2.936679 0.469303 0.0) // 182
    (-2.946529 0.469303 4.215) // 183
    (0.028622 0.055782 0.0) // 184
    (0.307553 0.021821 4.215) // 185
    (-2.959444 0.376 0.0) // 186
    (-2.965754 0.376 4.215) // 187
    (0.015067 0.041885 0.0) // 188
    (0.300793 0.016321 4.215) // 189
    (-2.977174 0.282325 0.0) // 190
    (-2.980725 0.282325 4.215) // 191
    (0.005767 0.027921 0.0) // 192
    (0.296108 0.010837 4.215) // 193
    (-2.989851 0.188372 0.0) // 194
    (-2.99143 0.188372 4.215) // 195
    (0.000744 0.013947 0.0) // 196
    (0.293508 0.005391 4.215) // 197
    (-2.997462 0.094232 0.0) // 198
    (-2.997857 0.094232 4.215) // 199
    (0.0 0.0 0.0) // 200
    (0.293 0.0 4.215) // 201
    (-3.0 0.0 0.0) // 202
    (-3.0 0.0 4.215) // 203
    (0.003485 -0.013522 0.0) // 204
    (0.294563 -0.005184 4.215) // 205
    (-2.997462 -0.094232 0.0) // 206
    (-2.997857 -0.094232 4.215) // 207
    (0.011131 -0.026239 0.0) // 208
    (0.298172 -0.010013 4.215) // 209
    (-2.989851 -0.188372 0.0) // 210
    (-2.99143 -0.188372 4.215) // 211
    (0.022892 -0.03813 0.0) // 212
    (0.303806 -0.014483 4.215) // 213
    (-2.977174 -0.282325 0.0) // 214
    (-2.980725 -0.282325 4.215) // 215
    (0.038705 -0.049182 0.0) // 216
    (0.311435 -0.018587 4.215) // 217
    (-2.959444 -0.376 0.0) // 218
    (-2.965754 -0.376 4.215) // 219
    (0.058493 -0.05937 0.0) // 220
    (0.321024 -0.022322 4.215) // 221
    (-2.936679 -0.469303 0.0) // 222
    (-2.946529 -0.469303 4.215) // 223
    (0.082165 -0.068679 0.0) // 224
    (0.332531 -0.025684 4.215) // 225
    (-2.9089 -0.562144 0.0) // 226
    (-2.923072 -0.562144 4.215) // 227
    (0.109614 -0.077086 0.0) // 228
    (0.345905 -0.028669 4.215) // 229
    (-2.876135 -0.65443 0.0) // 230
    (-2.895405 -0.65443 4.215) // 231
    (0.140722 -0.084578 0.0) // 232
    (0.361089 -0.031276 4.215) // 233
    (-2.838417 -0.74607 0.0) // 234
    (-2.863554 -0.74607 4.215) // 235
    (0.175355 -0.091144 0.0) // 236
    (0.378021 -0.033508 4.215) // 237
    (-2.795782 -0.836973 0.0) // 238
    (-2.827552 -0.836973 4.215) // 239
    (0.213379 -0.096776 0.0) // 240
    (0.396631 -0.035364 4.215) // 241
    (-2.748273 -0.927051 0.0) // 242
    (-2.787434 -0.927051 4.215) // 243
    (0.254633 -0.10148 0.0) // 244
    (0.416844 -0.036855 4.215) // 245
    (-2.695937 -1.016214 0.0) // 246
    (-2.74324 -1.016214 4.215) // 247
    (0.298966 -0.10526 0.0) // 248
    (0.438585 -0.03799 4.215) // 249
    (-2.638826 -1.104374 0.0) // 250
    (-2.695014 -1.104374 4.215) // 251
    (0.346202 -0.108142 0.0) // 252
    (0.461768 -0.038783 4.215) // 253
    (-2.576995 -1.191444 0.0) // 254
    (-2.642802 -1.191444 4.215) // 255
    (0.396166 -0.110154 0.0) // 256
    (0.486304 -0.039252 4.215) // 257
    (-2.510506 -1.277338 0.0) // 258
    (-2.586656 -1.277338 4.215) // 259
    (0.448673 -0.111335 0.0) // 260
    (0.512102 -0.039419 4.215) // 261
    (-2.439424 -1.361971 0.0) // 262
    (-2.526633 -1.361971 4.215) // 263
    (0.503534 -0.111738 0.0) // 264
    (0.539068 -0.03931 4.215) // 265
    (-2.363819 -1.445261 0.0) // 266
    (-2.46279 -1.445261 4.215) // 267
    (0.560547 -0.111423 0.0) // 268
    (0.567099 -0.038953 4.215) // 269
    (-2.283767 -1.527124 0.0) // 270
    (-2.395191 -1.527124 4.215) // 271
    (0.619507 -0.110455 0.0) // 272
    (0.596094 -0.038381 4.215) // 273
    (-2.199346 -1.60748 0.0) // 274
    (-2.323904 -1.60748 4.215) // 275
    (0.680205 -0.108909 0.0) // 276
    (0.625948 -0.037626 4.215) // 277
    (-2.110639 -1.68625 0.0) // 278
    (-2.248997 -1.68625 4.215) // 279
    (0.742419 -0.106869 0.0) // 280
    (0.656548 -0.036725 4.215) // 281
    (-2.017734 -1.763356 0.0) // 282
    (-2.170545 -1.763356 4.215) // 283
    (0.805924 -0.104416 0.0) // 284
    (0.687782 -0.035714 4.215) // 285
    (-1.920723 -1.838721 0.0) // 286
    (-2.088626 -1.838721 4.215) // 287
    (0.870619 -0.101627 0.0) // 288
    (0.719586 -0.034625 4.215) // 289
    (-1.819701 -1.912272 0.0) // 290
    (-2.00332 -1.912272 4.215) // 291
    (0.93662 -0.098404 0.0) // 292
    (0.751975 -0.0334 4.215) // 293
    (-1.714769 -1.983936 0.0) // 294
    (-1.914712 -1.983936 4.215) // 295
    (1.003175 -0.094731 0.0) // 296
    (0.784633 -0.032028 4.215) // 297
    (-1.606029 -2.053641 0.0) // 298
    (-1.822889 -2.053641 4.215) // 299
    (1.07003 -0.090681 0.0) // 300
    (0.817434 -0.030535 4.215) // 301
    (-1.493589 -2.12132 0.0) // 302
    (-1.727941 -2.12132 4.215) // 303
    (1.136924 -0.086326 0.0) // 304
    (0.850251 -0.02895 4.215) // 305
    (-1.37756 -2.186906 0.0) // 306
    (-1.629963 -2.186906 4.215) // 307
    (1.203599 -0.081732 0.0) // 308
    (0.882955 -0.027295 4.215) // 309
    (-1.258056 -2.250333 0.0) // 310
    (-1.52905 -2.250333 4.215) // 311
    (1.269796 -0.076959 0.0) // 312
    (0.915419 -0.025596 4.215) // 313
    (-1.135195 -2.31154 0.0) // 314
    (-1.425303 -2.31154 4.215) // 315
    (1.335256 -0.072069 0.0) // 316
    (0.947516 -0.023874 4.215) // 317
    (-1.0091 -2.370465 0.0) // 318
    (-1.318824 -2.370465 4.215) // 319
    (1.39972 -0.06711 0.0) // 320
    (0.97912 -0.022146 4.215) // 321
    (-0.879893 -2.427051 0.0) // 322
    (-1.209718 -2.427051 4.215) // 323
    (1.462934 -0.062134 0.0) // 324
    (1.010106 -0.020429 4.215) // 325
    (-0.747703 -2.481242 0.0) // 326
    (-1.098093 -2.481242 4.215) // 327
    (1.52465 -0.057182 0.0) // 328
    (1.040351 -0.018737 4.215) // 329
    (-0.61266 -2.532984 0.0) // 330
    (-0.984058 -2.532984 4.215) // 331
    (1.58462 -0.052289 0.0) // 332
    (1.069735 -0.017082 4.215) // 333
    (-0.474897 -2.582226 0.0) // 334
    (-0.867727 -2.582226 4.215) // 335
    (1.642603 -0.047491 0.0) // 336
    (1.098141 -0.015475 4.215) // 337
    (-0.33455 -2.62892 0.0) // 338
    (-0.749214 -2.62892 4.215) // 339
    (1.69837 -0.042815 0.0) // 340
    (1.125455 -0.013922 4.215) // 341
    (-0.191758 -2.67302 0.0) // 342
    (-0.628637 -2.67302 4.215) // 343
    (1.751695 -0.038289 0.0) // 344
    (1.151568 -0.012432 4.215) // 345
    (-0.046662 -2.714481 0.0) // 346
    (-0.506113 -2.714481 4.215) // 347
    (1.802362 -0.033941 0.0) // 348
    (1.176374 -0.011011 4.215) // 349
    (0.100595 -2.753264 0.0) // 350
    (-0.381765 -2.753264 4.215) // 351
    (1.850165 -0.02979 0.0) // 352
    (1.199776 -0.009665 4.215) // 353
    (0.249868 -2.789329 0.0) // 354
    (-0.255714 -2.789329 4.215) // 355
    (1.894911 -0.025862 0.0) // 356
    (1.221675 -0.008399 4.215) // 357
    (0.40101 -2.822642 0.0) // 358
    (-0.128085 -2.822642 4.215) // 359
    (1.936415 -0.022176 0.0) // 360
    (1.241985 -0.007219 4.215) // 361
    (0.553871 -2.85317 0.0) // 362
    (0.000995 -2.85317 4.215) // 363
    (1.974507 -0.018758 0.0) // 364
    (1.260621 -0.00613 4.215) // 365
    (0.7083 -2.880881 0.0) // 366
    (0.1314 -2.880881 4.215) // 367
    (2.009028 -0.015627 0.0) // 368
    (1.277508 -0.005136 4.215) // 369
    (0.864146 -2.905749 0.0) // 370
    (0.263001 -2.905749 4.215) // 371
    (2.039836 -0.012802 0.0) // 372
    (1.292577 -0.004243 4.215) // 373
    (1.021254 -2.92775 0.0) // 374
    (0.395667 -2.92775 4.215) // 375
    (2.066803 -0.010306 0.0) // 376
    (1.305766 -0.003457 4.215) // 377
    (1.179469 -2.946862 0.0) // 378
    (0.529269 -2.946862 4.215) // 379
    (2.089817 -0.008158 0.0) // 380
    (1.31702 -0.002781 4.215) // 381
    (1.338635 -2.963065 0.0) // 382
    (0.663673 -2.963065 4.215) // 383
    (2.108778 -0.006375 0.0) // 384
    (1.326291 -0.002222 4.215) // 385
    (1.498595 -2.976344 0.0) // 386
    (0.798748 -2.976344 4.215) // 387
    (2.123612 -0.004972 0.0) // 388
    (1.333544 -0.001782 4.215) // 389
    (1.659191 -2.986686 0.0) // 390
    (0.934361 -2.986686 4.215) // 391
    (2.134252 -0.003958 0.0) // 392
    (1.338745 -0.001465 4.215) // 393
    (1.820265 -2.99408 0.0) // 394
    (1.070377 -2.99408 4.215) // 395
    (2.140653 -0.003347 0.0) // 396
    (1.341874 -0.001274 4.215) // 397
    (1.981658 -2.99852 0.0) // 398
    (1.206661 -2.99852 4.215) // 399
    (2.14279 -0.003144 0.0) // 400
    (1.342919 -0.00121 4.215) // 401
    (2.14321 -3.0 0.0) // 402
    (1.343081 -3.0 4.215) // 403
    (3.0 3.0 0.0) // 404
    (3.0 3.0 4.215) // 405
    (3.0 0.003144 0.0) // 406
    (3.0 0.00121 4.215) // 407
    (3.0 -0.003144 0.0) // 408
    (3.0 -0.00121 4.215) // 409
    (3.0 -3.0 0.0) // 410
    (3.0 -3.0 4.215) // 411
    (1.341964 6.9e-05 4.216343) // 412
    (1.343 0.0 4.21621) // 413
    (1.206661 0.0 7.21352) // 414
    (1.343081 0.0 7.215) // 415
    (1.343 0.0 4.215) // 416
    (3.0 0.0 4.215) // 417
    (3.0 0.0 4.21621) // 418
    (3.0 0.0 7.215) // 419
    (1.33886 0.000275 4.21674) // 420
    (1.070377 0.0 7.20908) // 421
    (1.333701 0.000615 4.217397) // 422
    (0.934361 0.0 7.201686) // 423
    (1.326506 0.001085 4.218307) // 424
    (0.798748 0.0 7.191344) // 425
    (1.317305 0.001678 4.219459) // 426
    (0.663673 0.0 7.178065) // 427
    (1.306132 0.002386 4.220842) // 428
    (0.529269 0.0 7.161862) // 429
    (1.293034 0.003199 4.222442) // 430
    (0.395667 0.0 7.14275) // 431
    (1.278061 0.004106 4.224242) // 432
    (0.263001 0.0 7.120749) // 433
    (1.261272 0.005095 4.226225) // 434
    (0.1314 0.0 7.095881) // 435
    (1.242734 0.006152 4.228371) // 436
    (0.000995 0.0 7.06817) // 437
    (1.222519 0.007264 4.230663) // 438
    (-0.128085 0.0 7.037642) // 439
    (1.200709 0.008415 4.23308) // 440
    (-0.255714 0.0 7.004329) // 441
    (1.177387 0.00959 4.235601) // 442
    (-0.381765 0.0 6.968264) // 443
    (1.152648 0.010773 4.238205) // 444
    (-0.506113 0.0 6.929481) // 445
    (1.126587 0.01195 4.240871) // 446
    (-0.628637 0.0 6.88802) // 447
    (1.099309 0.013104 4.243579) // 448
    (-0.749214 0.0 6.84392) // 449
    (1.070921 0.014222 4.246304) // 450
    (-0.867727 0.0 6.797226) // 451
    (1.041534 0.015289 4.249026) // 452
    (-0.984058 0.0 6.747984) // 453
    (1.011265 0.016293 4.251722) // 454
    (-1.098093 0.0 6.696242) // 455
    (0.980234 0.017222 4.254367) // 456
    (-1.209718 0.0 6.642051) // 457
    (0.948562 0.018064 4.256938) // 458
    (-1.318824 0.0 6.585465) // 459
    (0.916375 0.018812 4.259408) // 460
    (-1.425303 0.0 6.52654) // 461
    (0.8838 0.019457 4.261751) // 462
    (-1.52905 0.0 6.465333) // 463
    (0.850965 0.019993 4.263942) // 464
    (-1.629963 0.0 6.401906) // 465
    (0.818 0.020417 4.265952) // 466
    (-1.727941 0.0 6.33632) // 467
    (0.785035 0.020725 4.267754) // 468
    (-1.822889 0.0 6.268641) // 469
    (0.7522 0.020919 4.269319) // 470
    (-1.914712 0.0 6.198936) // 471
    (0.719624 0.020997 4.270622) // 472
    (-2.00332 0.0 6.127272) // 473
    (0.687438 0.020922 4.271636) // 474
    (-2.088626 0.0 6.053721) // 475
    (0.655766 0.02061 4.272335) // 476
    (-2.170545 0.0 5.978356) // 477
    (0.624735 0.020073 4.272699) // 478
    (-2.248997 0.0 5.90125) // 479
    (0.594466 0.019327 4.272708) // 480
    (-2.323904 0.0 5.82248) // 481
    (0.56508 0.018395 4.272348) // 482
    (-2.395191 0.0 5.742124) // 483
    (0.536691 0.017299 4.271609) // 484
    (-2.46279 0.0 5.660261) // 485
    (0.509413 0.016066 4.270485) // 486
    (-2.526633 0.0 5.576971) // 487
    (0.483352 0.014722 4.268974) // 488
    (-2.586656 0.0 5.492338) // 489
    (0.458613 0.013296 4.267079) // 490
    (-2.642802 0.0 5.406444) // 491
    (0.435291 0.011819 4.264809) // 492
    (-2.695014 0.0 5.319374) // 493
    (0.41348 0.01032 4.262175) // 494
    (-2.74324 0.0 5.231214) // 495
    (0.393266 0.00883 4.259194) // 496
    (-2.787434 0.0 5.142051) // 497
    (0.374728 0.007377 4.255885) // 498
    (-2.827552 0.0 5.051973) // 499
    (0.357939 0.005992 4.252268) // 500
    (-2.863554 0.0 4.96107) // 501
    (0.342966 0.004699 4.248368) // 502
    (-2.895405 0.0 4.86943) // 503
    (0.329867 0.003525 4.244209) // 504
    (-2.923072 0.0 4.777144) // 505
    (0.318695 0.002491 4.239813) // 506
    (-2.946529 0.0 4.684303) // 507
    (0.309494 0.001617 4.235204) // 508
    (-2.965754 0.0 4.591) // 509
    (0.302299 0.000919 4.230402) // 510
    (-2.980725 0.0 4.497325) // 511
    (0.29714 0.000412 4.225425) // 512
    (-2.99143 0.0 4.403372) // 513
    (0.294036 0.000103 4.220287) // 514
    (-2.997857 0.0 4.309232) // 515
);

blocks
(
  hex ( 0 1 2 3 4 5 6 7 ) (1 30 20) simpleGrading (1 1 1000)
  hex ( 1 8 9 2 5 10 11 6 ) (1 30 20) simpleGrading (1 1 1000)
  hex ( 8 12 13 9 10 14 15 11 ) (1 30 20) simpleGrading (1 1 1000)
  hex ( 12 16 17 13 14 18 19 15 ) (1 30 20) simpleGrading (1 1 1000)
  hex ( 16 20 21 17 18 22 23 19 ) (1 30 20) simpleGrading (1 1 1000)
  hex ( 20 24 25 21 22 26 27 23 ) (1 30 20) simpleGrading (1 1 1000)
  hex ( 24 28 29 25 26 30 31 27 ) (1 30 20) simpleGrading (1 1 1000)
  hex ( 28 32 33 29 30 34 35 31 ) (1 30 20) simpleGrading (1 1 1000)
  hex ( 32 36 37 33 34 38 39 35 ) (1 30 20) simpleGrading (1 1 1000)
  hex ( 36 40 41 37 38 42 43 39 ) (1 30 20) simpleGrading (1 1 1000)
  hex ( 40 44 45 41 42 46 47 43 ) (1 30 20) simpleGrading (1 1 1000)
  hex ( 44 48 49 45 46 50 51 47 ) (1 30 20) simpleGrading (1 1 1000)
  hex ( 48 52 53 49 50 54 55 51 ) (1 30 20) simpleGrading (1 1 1000)
  hex ( 52 56 57 53 54 58 59 55 ) (1 30 20) simpleGrading (1 1 1000)
  hex ( 56 60 61 57 58 62 63 59 ) (1 30 20) simpleGrading (1 1 1000)
  hex ( 60 64 65 61 62 66 67 63 ) (1 30 20) simpleGrading (1 1 1000)
  hex ( 64 68 69 65 66 70 71 67 ) (1 30 20) simpleGrading (1 1 1000)
  hex ( 68 72 73 69 70 74 75 71 ) (1 30 20) simpleGrading (1 1 1000)
  hex ( 72 76 77 73 74 78 79 75 ) (1 30 20) simpleGrading (1 1 1000)
  hex ( 76 80 81 77 78 82 83 79 ) (1 30 20) simpleGrading (1 1 1000)
  hex ( 80 84 85 81 82 86 87 83 ) (1 30 20) simpleGrading (1 1 1000)
  hex ( 84 88 89 85 86 90 91 87 ) (1 30 20) simpleGrading (1 1 1000)
  hex ( 88 92 93 89 90 94 95 91 ) (1 30 20) simpleGrading (1 1 1000)
  hex ( 92 96 97 93 94 98 99 95 ) (1 30 20) simpleGrading (1 1 1000)
  hex ( 96 100 101 97 98 102 103 99 ) (1 30 20) simpleGrading (1 1 1000)
  hex ( 100 104 105 101 102 106 107 103 ) (1 30 20) simpleGrading (1 1 1000)
  hex ( 104 108 109 105 106 110 111 107 ) (1 30 20) simpleGrading (1 1 1000)
  hex ( 108 112 113 109 110 114 115 111 ) (1 30 20) simpleGrading (1 1 1000)
  hex ( 112 116 117 113 114 118 119 115 ) (1 30 20) simpleGrading (1 1 1000)
  hex ( 116 120 121 117 118 122 123 119 ) (1 30 20) simpleGrading (1 1 1000)
  hex ( 120 124 125 121 122 126 127 123 ) (1 30 20) simpleGrading (1 1 1000)
  hex ( 124 128 129 125 126 130 131 127 ) (1 30 20) simpleGrading (1 1 1000)
  hex ( 128 132 133 129 130 134 135 131 ) (1 30 20) simpleGrading (1 1 1000)
  hex ( 132 136 137 133 134 138 139 135 ) (1 30 20) simpleGrading (1 1 1000)
  hex ( 136 140 141 137 138 142 143 139 ) (1 30 20) simpleGrading (1 1 1000)
  hex ( 140 144 145 141 142 146 147 143 ) (1 30 20) simpleGrading (1 1 1000)
  hex ( 144 148 149 145 146 150 151 147 ) (1 30 20) simpleGrading (1 1 1000)
  hex ( 148 152 153 149 150 154 155 151 ) (1 30 20) simpleGrading (1 1 1000)
  hex ( 152 156 157 153 154 158 159 155 ) (1 30 20) simpleGrading (1 1 1000)
  hex ( 156 160 161 157 158 162 163 159 ) (1 30 20) simpleGrading (1 1 1000)
  hex ( 160 164 165 161 162 166 167 163 ) (1 30 20) simpleGrading (1 1 1000)
  hex ( 164 168 169 165 166 170 171 167 ) (1 30 20) simpleGrading (1 1 1000)
  hex ( 168 172 173 169 170 174 175 171 ) (1 30 20) simpleGrading (1 1 1000)
  hex ( 172 176 177 173 174 178 179 175 ) (1 30 20) simpleGrading (1 1 1000)
  hex ( 176 180 181 177 178 182 183 179 ) (1 30 20) simpleGrading (1 1 1000)
  hex ( 180 184 185 181 182 186 187 183 ) (1 30 20) simpleGrading (1 1 1000)
  hex ( 184 188 189 185 186 190 191 187 ) (1 30 20) simpleGrading (1 1 1000)
  hex ( 188 192 193 189 190 194 195 191 ) (1 30 20) simpleGrading (1 1 1000)
  hex ( 192 196 197 193 194 198 199 195 ) (1 30 20) simpleGrading (1 1 1000)
  hex ( 196 200 201 197 198 202 203 199 ) (1 30 20) simpleGrading (1 1 1000)
  hex ( 200 204 205 201 202 206 207 203 ) (1 30 20) simpleGrading (1 1 1000)
  hex ( 204 208 209 205 206 210 211 207 ) (1 30 20) simpleGrading (1 1 1000)
  hex ( 208 212 213 209 210 214 215 211 ) (1 30 20) simpleGrading (1 1 1000)
  hex ( 212 216 217 213 214 218 219 215 ) (1 30 20) simpleGrading (1 1 1000)
  hex ( 216 220 221 217 218 222 223 219 ) (1 30 20) simpleGrading (1 1 1000)
  hex ( 220 224 225 221 222 226 227 223 ) (1 30 20) simpleGrading (1 1 1000)
  hex ( 224 228 229 225 226 230 231 227 ) (1 30 20) simpleGrading (1 1 1000)
  hex ( 228 232 233 229 230 234 235 231 ) (1 30 20) simpleGrading (1 1 1000)
  hex ( 232 236 237 233 234 238 239 235 ) (1 30 20) simpleGrading (1 1 1000)
  hex ( 236 240 241 237 238 242 243 239 ) (1 30 20) simpleGrading (1 1 1000)
  hex ( 240 244 245 241 242 246 247 243 ) (1 30 20) simpleGrading (1 1 1000)
  hex ( 244 248 249 245 246 250 251 247 ) (1 30 20) simpleGrading (1 1 1000)
  hex ( 248 252 253 249 250 254 255 251 ) (1 30 20) simpleGrading (1 1 1000)
  hex ( 252 256 257 253 254 258 259 255 ) (1 30 20) simpleGrading (1 1 1000)
  hex ( 256 260 261 257 258 262 263 259 ) (1 30 20) simpleGrading (1 1 1000)
  hex ( 260 264 265 261 262 266 267 263 ) (1 30 20) simpleGrading (1 1 1000)
  hex ( 264 268 269 265 266 270 271 267 ) (1 30 20) simpleGrading (1 1 1000)
  hex ( 268 272 273 269 270 274 275 271 ) (1 30 20) simpleGrading (1 1 1000)
  hex ( 272 276 277 273 274 278 279 275 ) (1 30 20) simpleGrading (1 1 1000)
  hex ( 276 280 281 277 278 282 283 279 ) (1 30 20) simpleGrading (1 1 1000)
  hex ( 280 284 285 281 282 286 287 283 ) (1 30 20) simpleGrading (1 1 1000)
  hex ( 284 288 289 285 286 290 291 287 ) (1 30 20) simpleGrading (1 1 1000)
  hex ( 288 292 293 289 290 294 295 291 ) (1 30 20) simpleGrading (1 1 1000)
  hex ( 292 296 297 293 294 298 299 295 ) (1 30 20) simpleGrading (1 1 1000)
  hex ( 296 300 301 297 298 302 303 299 ) (1 30 20) simpleGrading (1 1 1000)
  hex ( 300 304 305 301 302 306 307 303 ) (1 30 20) simpleGrading (1 1 1000)
  hex ( 304 308 309 305 306 310 311 307 ) (1 30 20) simpleGrading (1 1 1000)
  hex ( 308 312 313 309 310 314 315 311 ) (1 30 20) simpleGrading (1 1 1000)
  hex ( 312 316 317 313 314 318 319 315 ) (1 30 20) simpleGrading (1 1 1000)
  hex ( 316 320 321 317 318 322 323 319 ) (1 30 20) simpleGrading (1 1 1000)
  hex ( 320 324 325 321 322 326 327 323 ) (1 30 20) simpleGrading (1 1 1000)
  hex ( 324 328 329 325 326 330 331 327 ) (1 30 20) simpleGrading (1 1 1000)
  hex ( 328 332 333 329 330 334 335 331 ) (1 30 20) simpleGrading (1 1 1000)
  hex ( 332 336 337 333 334 338 339 335 ) (1 30 20) simpleGrading (1 1 1000)
  hex ( 336 340 341 337 338 342 343 339 ) (1 30 20) simpleGrading (1 1 1000)
  hex ( 340 344 345 341 342 346 347 343 ) (1 30 20) simpleGrading (1 1 1000)
  hex ( 344 348 349 345 346 350 351 347 ) (1 30 20) simpleGrading (1 1 1000)
  hex ( 348 352 353 349 350 354 355 351 ) (1 30 20) simpleGrading (1 1 1000)
  hex ( 352 356 357 353 354 358 359 355 ) (1 30 20) simpleGrading (1 1 1000)
  hex ( 356 360 361 357 358 362 363 359 ) (1 30 20) simpleGrading (1 1 1000)
  hex ( 360 364 365 361 362 366 367 363 ) (1 30 20) simpleGrading (1 1 1000)
  hex ( 364 368 369 365 366 370 371 367 ) (1 30 20) simpleGrading (1 1 1000)
  hex ( 368 372 373 369 370 374 375 371 ) (1 30 20) simpleGrading (1 1 1000)
  hex ( 372 376 377 373 374 378 379 375 ) (1 30 20) simpleGrading (1 1 1000)
  hex ( 376 380 381 377 378 382 383 379 ) (1 30 20) simpleGrading (1 1 1000)
  hex ( 380 384 385 381 382 386 387 383 ) (1 30 20) simpleGrading (1 1 1000)
  hex ( 384 388 389 385 386 390 391 387 ) (1 30 20) simpleGrading (1 1 1000)
  hex ( 388 392 393 389 390 394 395 391 ) (1 30 20) simpleGrading (1 1 1000)
  hex ( 392 396 397 393 394 398 399 395 ) (1 30 20) simpleGrading (1 1 1000)
  hex ( 396 400 401 397 398 402 403 399 ) (1 30 20) simpleGrading (1 1 1000)
  hex ( 4 404 405 7 0 406 407 3 ) (20 30 20) simpleGrading (1000 1 0.001)
  hex ( 0 406 407 3 400 408 409 401 ) (20 30 1) simpleGrading (1000 1 1000)
  hex ( 400 408 409 401 402 410 411 403 ) (20 30 20) simpleGrading (1000 1 1000)
  hex ( 3 2 412 413 7 6 414 415 ) (1 1 20) simpleGrading (1 1 1000)
  hex ( 416 3 413 416 417 407 418 417 ) (20 1 20) simpleGrading (1000 1 0.001)
  hex ( 7 405 419 415 3 407 418 413 ) (20 1 20) simpleGrading (1000 1 0.001)
  hex ( 413 412 397 401 415 414 399 403 ) (1 1 20) simpleGrading (1 1 1000)
  hex ( 416 413 401 416 417 418 409 417 ) (20 1 20) simpleGrading (1000 1 0.001)
  hex ( 415 419 411 403 413 418 409 401 ) (20 1 20) simpleGrading (1000 1 0.001)
  hex ( 2 9 420 412 6 11 421 414 ) (1 1 20) simpleGrading (1 1 1000)
  hex ( 412 420 393 397 414 421 395 399 ) (1 1 20) simpleGrading (1 1 1000)
  hex ( 9 13 422 420 11 15 423 421 ) (1 1 20) simpleGrading (1 1 1000)
  hex ( 420 422 389 393 421 423 391 395 ) (1 1 20) simpleGrading (1 1 1000)
  hex ( 13 17 424 422 15 19 425 423 ) (1 1 20) simpleGrading (1 1 1000)
  hex ( 422 424 385 389 423 425 387 391 ) (1 1 20) simpleGrading (1 1 1000)
  hex ( 17 21 426 424 19 23 427 425 ) (1 1 20) simpleGrading (1 1 1000)
  hex ( 424 426 381 385 425 427 383 387 ) (1 1 20) simpleGrading (1 1 1000)
  hex ( 21 25 428 426 23 27 429 427 ) (1 1 20) simpleGrading (1 1 1000)
  hex ( 426 428 377 381 427 429 379 383 ) (1 1 20) simpleGrading (1 1 1000)
  hex ( 25 29 430 428 27 31 431 429 ) (1 1 20) simpleGrading (1 1 1000)
  hex ( 428 430 373 377 429 431 375 379 ) (1 1 20) simpleGrading (1 1 1000)
  hex ( 29 33 432 430 31 35 433 431 ) (1 1 20) simpleGrading (1 1 1000)
  hex ( 430 432 369 373 431 433 371 375 ) (1 1 20) simpleGrading (1 1 1000)
  hex ( 33 37 434 432 35 39 435 433 ) (1 1 20) simpleGrading (1 1 1000)
  hex ( 432 434 365 369 433 435 367 371 ) (1 1 20) simpleGrading (1 1 1000)
  hex ( 37 41 436 434 39 43 437 435 ) (1 1 20) simpleGrading (1 1 1000)
  hex ( 434 436 361 365 435 437 363 367 ) (1 1 20) simpleGrading (1 1 1000)
  hex ( 41 45 438 436 43 47 439 437 ) (1 1 20) simpleGrading (1 1 1000)
  hex ( 436 438 357 361 437 439 359 363 ) (1 1 20) simpleGrading (1 1 1000)
  hex ( 45 49 440 438 47 51 441 439 ) (1 1 20) simpleGrading (1 1 1000)
  hex ( 438 440 353 357 439 441 355 359 ) (1 1 20) simpleGrading (1 1 1000)
  hex ( 49 53 442 440 51 55 443 441 ) (1 1 20) simpleGrading (1 1 1000)
  hex ( 440 442 349 353 441 443 351 355 ) (1 1 20) simpleGrading (1 1 1000)
  hex ( 53 57 444 442 55 59 445 443 ) (1 1 20) simpleGrading (1 1 1000)
  hex ( 442 444 345 349 443 445 347 351 ) (1 1 20) simpleGrading (1 1 1000)
  hex ( 57 61 446 444 59 63 447 445 ) (1 1 20) simpleGrading (1 1 1000)
  hex ( 444 446 341 345 445 447 343 347 ) (1 1 20) simpleGrading (1 1 1000)
  hex ( 61 65 448 446 63 67 449 447 ) (1 1 20) simpleGrading (1 1 1000)
  hex ( 446 448 337 341 447 449 339 343 ) (1 1 20) simpleGrading (1 1 1000)
  hex ( 65 69 450 448 67 71 451 449 ) (1 1 20) simpleGrading (1 1 1000)
  hex ( 448 450 333 337 449 451 335 339 ) (1 1 20) simpleGrading (1 1 1000)
  hex ( 69 73 452 450 71 75 453 451 ) (1 1 20) simpleGrading (1 1 1000)
  hex ( 450 452 329 333 451 453 331 335 ) (1 1 20) simpleGrading (1 1 1000)
  hex ( 73 77 454 452 75 79 455 453 ) (1 1 20) simpleGrading (1 1 1000)
  hex ( 452 454 325 329 453 455 327 331 ) (1 1 20) simpleGrading (1 1 1000)
  hex ( 77 81 456 454 79 83 457 455 ) (1 1 20) simpleGrading (1 1 1000)
  hex ( 454 456 321 325 455 457 323 327 ) (1 1 20) simpleGrading (1 1 1000)
  hex ( 81 85 458 456 83 87 459 457 ) (1 1 20) simpleGrading (1 1 1000)
  hex ( 456 458 317 321 457 459 319 323 ) (1 1 20) simpleGrading (1 1 1000)