FoamFile
{
    version     2.0;
format      ascii;
class       dictionary;
object      blockMeshDict;
}
convertToMeters 1;

vertices
(
    (0.568 0.109 4.3) // 0
    (0.566996 0.10924 4.3) // 1
    (0.566988 0.109154 4.300149) // 2
    (0.568 3.0 4.3) // 3
    (0.566996 3.0 4.3) // 4
    (0.566996 1.5 6.898076) // 5
    (0.568 1.5 6.898076) // 6
    (0.566981 0.108982 4.300149) // 7
    (0.566996 -1.5 6.898076) // 8
    (0.568 -1.5 6.898076) // 9
    (0.566973 0.108896 4.3) // 10
    (0.566996 -3.0 4.3) // 11
    (0.568 -3.0 4.3) // 12
    (0.563988 0.109954 4.3) // 13
    (0.563958 0.109612 4.300593) // 14
    (0.563988 3.0 4.3) // 15
    (0.563988 1.5 6.898076) // 16
    (0.563928 0.108927 4.300593) // 17
    (0.563988 -1.5 6.898076) // 18
    (0.563897 0.108585 4.3) // 19
    (0.563988 -3.0 4.3) // 20
    (0.558987 0.111136 4.3) // 21
    (0.55892 0.11037 4.301328) // 22
    (0.558987 3.0 4.3) // 23
    (0.558987 1.5 6.898076) // 24
    (0.558853 0.108836 4.301328) // 25
    (0.558987 -1.5 6.898076) // 26
    (0.558786 0.10807 4.3) // 27
    (0.558987 -3.0 4.3) // 28
    (0.552011 0.112771 4.3) // 29
    (0.551894 0.111417 4.302345) // 30
    (0.552011 3.0 4.3) // 31
    (0.552011 1.5 6.898076) // 32
    (0.551777 0.10871 4.302345) // 33
    (0.552011 -1.5 6.898076) // 34
    (0.551661 0.107356 4.3) // 35
    (0.552011 -3.0 4.3) // 36
    (0.543087 0.11484 4.3) // 37
    (0.542908 0.112742 4.303633) // 38
    (0.543087 3.0 4.3) // 39
    (0.543087 1.5 6.898076) // 40
    (0.542729 0.108547 4.303633) // 41
    (0.543087 -1.5 6.898076) // 42
    (0.542551 0.10645 4.3) // 43
    (0.543087 -3.0 4.3) // 44
    (0.532245 0.117316 4.3) // 45
    (0.531995 0.114327 4.305178) // 46
    (0.532245 3.0 4.3) // 47
    (0.532245 1.5 6.898076) // 48
    (0.531745 0.108349 4.305178) // 49
    (0.532245 -1.5 6.898076) // 50
    (0.531495 0.105359 4.3) // 51
    (0.532245 -3.0 4.3) // 52
    (0.519527 0.120175 4.3) // 53
    (0.519198 0.116155 4.306963) // 54
    (0.519527 3.0 4.3) // 55
    (0.519527 1.5 6.898076) // 56
    (0.518869 0.108115 4.306963) // 57
    (0.519527 -1.5 6.898076) // 58
    (0.51854 0.104095 4.3) // 59
    (0.519527 -3.0 4.3) // 60
    (0.504979 0.123381 4.3) // 61
    (0.504566 0.118203 4.30897) // 62
    (0.504979 3.0 4.3) // 63
    (0.504979 1.5 6.898076) // 64
    (0.504153 0.107845 4.30897) // 65
    (0.504979 -1.5 6.898076) // 66
    (0.50374 0.102667 4.3) // 67
    (0.504979 -3.0 4.3) // 68
    (0.488656 0.126902 4.3) // 69
    (0.488156 0.120447 4.311179) // 70
    (0.488656 3.0 4.3) // 71
    (0.488656 1.5 6.898076) // 72
    (0.487657 0.107539 4.311179) // 73
    (0.488656 -1.5 6.898076) // 74
    (0.487158 0.101085 4.3) // 75
    (0.488656 -3.0 4.3) // 76
    (0.470617 0.130696 4.3) // 77
    (0.470032 0.122863 4.313568) // 78
    (0.470617 3.0 4.3) // 79
    (0.470617 1.5 6.898076) // 80
    (0.469446 0.107196 4.313568) // 81
    (0.470617 -1.5 6.898076) // 82
    (0.468861 0.099362 4.3) // 83
    (0.470617 -3.0 4.3) // 84
    (0.450933 0.134728 4.3) // 85
    (0.450264 0.125424 4.316116) // 86
    (0.450933 3.0 4.3) // 87
    (0.450933 1.5 6.898076) // 88
    (0.449595 0.106815 4.316116) // 89
    (0.450933 -1.5 6.898076) // 90
    (0.448926 0.09751 4.3) // 91
    (0.450933 -3.0 4.3) // 92
    (0.429675 0.138953 4.3) // 93
    (0.428928 0.1281 4.318799) // 94
    (0.429675 3.0 4.3) // 95
    (0.429675 1.5 6.898076) // 96
    (0.428181 0.106393 4.318799) // 97
    (0.429675 -1.5 6.898076) // 98
    (0.427434 0.09554 4.3) // 99
    (0.429675 -3.0 4.3) // 100
    (0.406924 0.143333 4.3) // 101
    (0.406108 0.130865 4.321594) // 102
    (0.406924 3.0 4.3) // 103
    (0.406924 1.5 6.898076) // 104
    (0.405291 0.10593 4.321594) // 105
    (0.406924 -1.5 6.898076) // 106
    (0.404474 0.093463 4.3) // 107
    (0.406924 -3.0 4.3) // 108
    (0.38277 0.147822 4.3) // 109
    (0.381893 0.13369 4.324478) // 110
    (0.38277 3.0 4.3) // 111
    (0.38277 1.5 6.898076) // 112
    (0.381016 0.105425 4.324478) // 113
    (0.38277 -1.5 6.898076) // 114
    (0.38014 0.091293 4.3) // 115
    (0.38277 -3.0 4.3) // 116
    (0.357302 0.152379 4.3) // 117
    (0.356378 0.136545 4.327425) // 118
    (0.357302 3.0 4.3) // 119
    (0.357302 1.5 6.898076) // 120
    (0.355454 0.104877 4.327425) // 121
    (0.357302 -1.5 6.898076) // 122
    (0.35453 0.089043 4.3) // 123
    (0.357302 -3.0 4.3) // 124
    (0.330619 0.156962 4.3) // 125
    (0.329662 0.139402 4.330415) // 126
    (0.330619 3.0 4.3) // 127
    (0.330619 1.5 6.898076) // 128
    (0.328704 0.104282 4.330415) // 129
    (0.330619 -1.5 6.898076) // 130
    (0.327747 0.086722 4.3) // 131
    (0.330619 -3.0 4.3) // 132
    (0.302824 0.161527 4.3) // 133
    (0.301849 0.142233 4.33342) // 134
    (0.302824 3.0 4.3) // 135
    (0.302824 1.5 6.898076) // 136
    (0.300875 0.103643 4.33342) // 137
    (0.302824 -1.5 6.898076) // 138
    (0.2999 0.084348 4.3) // 139
    (0.302824 -3.0 4.3) // 140
    (0.274025 0.166033 4.3) // 141
    (0.273051 0.145008 4.336416) // 142
    (0.274025 3.0 4.3) // 143
    (0.274025 1.5 6.898076) // 144
    (0.272076 0.102958 4.336416) // 145
    (0.274025 -1.5 6.898076) // 146
    (0.271102 0.081933 4.3) // 147
    (0.274025 -3.0 4.3) // 148
    (0.244335 0.170439 4.3) // 149
    (0.243379 0.147703 4.339379) // 150
    (0.244335 3.0 4.3) // 151
    (0.244335 1.5 6.898076) // 152
    (0.242422 0.102231 4.339379) // 153
    (0.244335 -1.5 6.898076) // 154
    (0.241465 0.079495 4.3) // 155
    (0.244335 -3.0 4.3) // 156
    (0.21387 0.174702 4.3) // 157
    (0.212949 0.150289 4.342283) // 158
    (0.21387 3.0 4.3) // 159
    (0.21387 1.5 6.898076) // 160
    (0.212029 0.101465 4.342283) // 161
    (0.21387 -1.5 6.898076) // 162
    (0.211109 0.077053 4.3) // 163
    (0.21387 -3.0 4.3) // 164
    (0.18275 0.178781 4.3) // 165
    (0.181884 0.152742 4.345101) // 166
    (0.18275 3.0 4.3) // 167
    (0.18275 1.5 6.898076) // 168
    (0.181018 0.100664 4.345101) // 169
    (0.18275 -1.5 6.898076) // 170
    (0.180152 0.074625 4.3) // 171
    (0.18275 -3.0 4.3) // 172
    (0.151096 0.182636 4.3) // 173
    (0.150304 0.155036 4.347805) // 174
    (0.151096 3.0 4.3) // 175
    (0.151096 1.5 6.898076) // 176
    (0.149512 0.099835 4.347805) // 177
    (0.151096 -1.5 6.898076) // 178
    (0.14872 0.072235 4.3) // 179
    (0.151096 -3.0 4.3) // 180
    (0.119035 0.186227 4.3) // 181
    (0.118334 0.157147 4.350368) // 182
    (0.119035 3.0 4.3) // 183
    (0.119035 1.5 6.898076) // 184
    (0.117633 0.098987 4.350368) // 185
    (0.119035 -1.5 6.898076) // 186
    (0.116933 0.069907 4.3) // 187
    (0.119035 -3.0 4.3) // 188
    (0.086696 0.189516 4.3) // 189
    (0.086102 0.159054 4.352761) // 190
    (0.086696 3.0 4.3) // 191
    (0.086696 1.5 6.898076) // 192
    (0.085509 0.098131 4.352761) // 193
    (0.086696 -1.5 6.898076) // 194
    (0.084916 0.067669 4.3) // 195
    (0.086696 -3.0 4.3) // 196
    (0.054205 0.192464 4.3) // 197
    (0.053735 0.160736 4.354955) // 198
    (0.054205 3.0 4.3) // 199
    (0.054205 1.5 6.898076) // 200
    (0.053265 0.09728 4.354955) // 201
    (0.054205 -1.5 6.898076) // 202
    (0.052795 0.065552 4.3) // 203
    (0.054205 -3.0 4.3) // 204
    (0.021696 0.195036 4.3) // 205
    (0.021362 0.162173 4.356919) // 206
    (0.021696 3.0 4.3) // 207
    (0.021696 1.5 6.898076) // 208
    (0.021028 0.096449 4.356919) // 209
    (0.021696 -1.5 6.898076) // 210
    (0.020693 0.063586 4.3) // 211
    (0.021696 -3.0 4.3) // 212
    (-0.010703 0.197196 4.3) // 213
    (-0.010891 0.163348 4.358626) // 214
    (-0.010703 3.0 4.3) // 215
    (-0.010703 1.5 6.898076) // 216
    (-0.011078 0.095653 4.358626) // 217
    (-0.010703 -1.5 6.898076) // 218
    (-0.011265 0.061805 4.3) // 219
    (-0.010703 -3.0 4.3) // 220
    (-0.042859 0.198912 4.3) // 221
    (-0.042891 0.164245 4.360045) // 222
    (-0.0 3.0 4.3) // 223
    (-0.042859 3.0 4.3) // 224
    (-0.042859 1.5 6.898076) // 225
    (-0.0 1.5 6.898076) // 226
    (-0.042924 0.09491 4.360045) // 227
    (-0.204727 1.496503 6.892019) // 228
    (-0.042859 -1.5 6.898076) // 229
    (-0.204727 -1.496503 6.892019) // 230
    (-0.042956 0.060243 4.3) // 231
    (-0.4085 -1.486029 6.873878) // 232
    (-0.042859 -3.0 4.3) // 233
    (-0.4085 -2.972058 4.3) // 234
    (-0.074881 0.200114 4.3) // 235
    (-0.074594 0.164809 4.36115) // 236
    (-0.610368 2.937252 4.3) // 237
    (-0.074881 3.0 4.3) // 238
    (-0.074881 1.5 6.898076) // 239
    (-0.610368 1.468626 6.843735) // 240
    (-0.074308 0.094199 4.36115) // 241
    (-0.80939 1.444376 6.801732) // 242
    (-0.074881 -1.5 6.898076) // 243
    (-0.80939 -1.444376 6.801732) // 244
    (-0.074021 0.058894 4.3) // 245
    (-1.004639 -1.413391 6.748066) // 246
    (-0.074881 -3.0 4.3) // 247
    (-1.004639 -2.826783 4.3) // 248
    (-0.106463 0.200689 4.3) // 249
    (-0.105814 0.164943 4.361913) // 250
    (-1.195203 2.751634 4.3) // 251
    (-0.106463 3.0 4.3) // 252
    (-0.106463 1.5 6.898076) // 253
    (-1.195203 1.375817 6.682985) // 254
    (-0.105165 0.093452 4.361913) // 255
    (-1.380195 1.331828 6.606793) // 256
    (-0.106463 -1.5 6.898076) // 257
    (-1.380195 -1.331828 6.606793) // 258
    (-0.104515 0.057706 4.3) // 259
    (-1.558752 -1.281629 6.519847) // 260
    (-0.106463 -3.0 4.3) // 261
    (-1.558752 -2.563258 4.3) // 262
    (-0.137412 0.200622 4.3) // 263
    (-0.136404 0.164647 4.362311) // 264
    (-1.730041 2.45091 4.3) // 265
    (-0.137412 3.0 4.3) // 266
    (-0.137412 1.5 6.898076) // 267
    (-1.730041 1.225455 6.42255) // 268
    (-0.135396 0.092696 4.362311) // 269
    (-1.893264 1.163567 6.315357) // 270
    (-0.137412 -1.5 6.898076) // 271
    (-1.893264 -1.163567 6.315357) // 272
    (-0.134388 0.056721 4.3) // 273
    (-2.047659 -1.096254 6.198768) // 274
    (-0.137412 -3.0 4.3) // 275
    (-2.047659 -2.192508 4.3) // 276
    (-0.167594 0.199908 4.3) // 277
    (-0.16624 0.163924 4.362325) // 278
    (-2.192508 2.047659 4.3) // 279
    (-0.167594 3.0 4.3) // 280
    (-0.167594 1.5 6.898076) // 281
    (-2.192508 1.02383 6.073325) // 282
    (-0.164886 0.091957 4.362325) // 283
    (-2.327134 0.946632 5.939615) // 284
    (-0.167594 -1.5 6.898076) // 285
    (-2.327134 -0.946632 5.939615) // 286
    (-0.163533 0.055974 4.3) // 287
    (-2.45091 -0.86502 5.798259) // 288
    (-0.167594 -3.0 4.3) // 289
    (-2.45091 -1.730041 4.3) // 290
    (-0.196881 0.198549 4.3) // 291
    (-0.195202 0.162788 4.36194) // 292
    (-2.563258 1.558752 4.3) // 293
    (-0.196881 3.0 4.3) // 294
    (-0.196881 1.5 6.898076) // 295
    (-2.563258 0.779376 5.649919) // 296
    (-0.193523 0.091266 4.36194) // 297
    (-2.663656 0.690098 5.495284) // 298
    (-0.196881 -1.5 6.898076) // 299
    (-2.663656 -0.690098 5.495284) // 300
    (-0.191843 0.055505 4.3) // 301
    (-2.751634 -0.597602 5.335076) // 302
    (-0.196881 -3.0 4.3) // 303
    (-2.751634 -1.195203 4.3) // 304
    (-0.225147 0.196556 4.3) // 305
    (-0.223171 0.161254 4.361143) // 306
    (-2.826783 1.004639 4.3) // 307
    (-0.225147 3.0 4.3) // 308
    (-0.225147 1.5 6.898076) // 309
    (-2.826783 0.502319 5.170043) // 310
    (-0.221195 0.090652 4.361143) // 311
    (-2.888752 0.404695 5.000953) // 312
    (-0.225147 -1.5 6.898076) // 313
    (-2.888752 -0.404695 5.000953) // 314
    (-0.219219 0.055351 4.3) // 315
    (-2.937252 -0.305184 4.828594) // 316
    (-0.225147 -3.0 4.3) // 317
    (-2.937252 -0.610368 4.3) // 318
    (-0.25227 0.193946 4.3) // 319
    (-0.250034 0.159345 4.359931) // 320
    (-2.972058 0.4085 4.3) // 321
    (-0.25227 3.0 4.3) // 322
    (-0.25227 1.5 6.898076) // 323
    (-2.972058 0.20425 4.653771) // 324
    (-0.247798 0.090143 4.359931) // 325
    (-2.993006 0.102364 4.477299) // 326
    (-0.25227 -1.5 6.898076) // 327
    (-2.993006 -0.102364 4.477299) // 328
    (-0.245561 0.055542 4.3) // 329
    (-3.0 -0.0 4.3) // 330
    (-0.25227 -3.0 4.3) // 331
    (-0.278135 0.190746 4.3) // 332
    (-0.275682 0.157087 4.358299) // 333
    (-2.993006 -0.204727 4.3) // 334
    (-0.278135 3.0 4.3) // 335
    (-0.278135 1.5 6.898076) // 336
    (-2.993006 -0.102364 4.122701) // 337
    (-0.273228 0.089769 4.358299) // 338
    (-2.972058 -0.20425 3.946229) // 339
    (-0.278135 -1.5 6.898076) // 340
    (-2.972058 0.20425 3.946229) // 341
    (-0.270774 0.056109 4.3) // 342
    (-2.937252 0.305184 3.771406) // 343
    (-0.278135 -3.0 4.3) // 344
    (-2.937252 0.610368 4.3) // 345
    (-0.302634 0.186986 4.3) // 346
    (-0.300011 0.154508 4.356253) // 347
    (-2.888752 -0.80939 4.3) // 348
    (-0.302634 3.0 4.3) // 349
    (-0.302634 1.5 6.898076) // 350
    (-2.888752 -0.404695 3.599047) // 351
    (-0.297388 0.089552 4.356253) // 352
    (-2.826783 -0.502319 3.429957) // 353
    (-0.302634 -1.5 6.898076) // 354
    (-2.826783 0.502319 3.429957) // 355
    (-0.294765 0.057075 4.3) // 356
    (-2.751634 0.597602 3.264924) // 357
    (-0.302634 -3.0 4.3) // 358
    (-2.751634 1.195203 4.3) // 359
    (-0.325662 0.182707 4.3) // 360
    (-0.322923 0.151645 4.353802) // 361
    (-2.663656 -1.380195 4.3) // 362
    (-0.325662 3.0 4.3) // 363
    (-0.325662 1.5 6.898076) // 364
    (-2.663656 -0.690098 3.104716) // 365
    (-0.320185 0.08952 4.353802) // 366
    (-2.563258 -0.779376 2.950081) // 367
    (-0.325662 -1.5 6.898076) // 368
    (-2.563258 0.779376 2.950081) // 369
    (-0.317446 0.058458 4.3) // 370
    (-2.45091 0.86502 2.801741) // 371
    (-0.325662 -3.0 4.3) // 372
    (-2.45091 1.730041 4.3) // 373
    (-0.347126 0.177954 4.3) // 374
    (-0.344328 0.148534 4.350957) // 375
    (-2.327134 -1.893264 4.3) // 376
    (-0.347126 3.0 4.3) // 377
    (-0.347126 1.5 6.898076) // 378
    (-2.327134 -0.946632 2.660385) // 379
    (-0.341531 0.089694 4.350957) // 380
    (-2.192508 -1.02383 2.526675) // 381
    (-0.347126 -1.5 6.898076) // 382
    (-2.192508 1.02383 2.526675) // 383
    (-0.338733 0.060274 4.3) // 384
    (-2.047659 1.096254 2.401232) // 385
    (-0.347126 -3.0 4.3) // 386
    (-2.047659 2.192508 4.3) // 387
    (-0.366936 0.172775 4.3) // 388
    (-0.364138 0.145214 4.347737) // 389
    (-1.893264 -2.327134 4.3) // 390
    (-0.366936 3.0 4.3) // 391
    (-0.366936 1.5 6.898076) // 392
    (-1.893264 -1.163567 2.284643) // 393
    (-0.36134 0.090092 4.347737) // 394
    (-1.730041 -1.225455 2.17745) // 395
    (-0.366936 -1.5 6.898076) // 396
    (-1.730041 1.225455 2.17745) // 397
    (-0.358542 0.062531 4.3) // 398
    (-1.558752 1.281629 2.080153) // 399
    (-0.366936 -3.0 4.3) // 400
    (-1.558752 2.563258 4.3) // 401
    (-0.385013 0.167224 4.3) // 402
    (-0.382276 0.141727 4.344162) // 403
    (-1.380195 -2.663656 4.3) // 404
    (-0.385013 3.0 4.3) // 405
    (-0.385013 1.5 6.898076) // 406
    (-1.380195 -1.331828 1.993207) // 407
    (-0.379538 0.090733 4.344162) // 408
    (-1.195203 -1.375817 1.917015) // 409
    (-0.385013 -1.5 6.898076) // 410
    (-1.195203 1.375817 1.917015) // 411
    (-0.3768 0.065236 4.3) // 412
    (-1.004639 1.413391 1.851934) // 413
    (-0.385013 -3.0 4.3) // 414
    (-1.004639 2.826783 4.3) // 415
    (-0.401289 0.161356 4.3) // 416
    (-0.398669 0.138114 4.340256) // 417
    (-0.80939 -2.888752 4.3) // 418
    (-0.401289 3.0 4.3) // 419
    (-0.401289 1.5 6.898076) // 420
    (-0.80939 -1.444376 1.798268) // 421
    (-0.39605 0.09163 4.340256) // 422
    (-0.610368 -1.468626 1.756265) // 423
    (-0.401289 -1.5 6.898076) // 424
    (-0.610368 1.468626 1.756265) // 425
    (-0.39343 0.068388 4.3) // 426
    (-0.4085 1.486029 1.726122) // 427
    (-0.401289 -3.0 4.3) // 428
    (-0.4085 2.972058 4.3) // 429
    (-0.4157 0.155225 4.3) // 430
    (-0.413256 0.134415 4.336043) // 431
    (-0.204727 -2.993006 4.3) // 432
    (-0.4157 3.0 4.3) // 433
    (-0.4157 1.5 6.898076) // 434
    (-0.204727 -1.496503 1.707981) // 435
    (-0.410811 0.092796 4.336043) // 436
    (-0.0 -1.5 1.701924) // 437
    (-0.4157 -1.5 6.898076) // 438
    (-0.0 1.5 1.701924) // 439
    (-0.408367 0.071986 4.3) // 440
    (0.204727 1.496503 1.707981) // 441
    (-0.4157 -3.0 4.3) // 442
    (0.204727 2.993006 4.3) // 443
    (-0.428193 0.148886 4.3) // 444
    (-0.425978 0.13067 4.331551) // 445
    (0.4085 -2.972058 4.3) // 446
    (-0.428193 3.0 4.3) // 447
    (-0.428193 1.5 6.898076) // 448
    (0.4085 -1.486029 1.726122) // 449
    (-0.423763 0.094238 4.331551) // 450
    (0.610368 -1.468626 1.756265) // 451
    (-0.428193 -1.5 6.898076) // 452
    (0.610368 1.468626 1.756265) // 453
    (-0.421547 0.076023 4.3) // 454
    (0.80939 1.444376 1.798268) // 455
    (-0.428193 -3.0 4.3) // 456
    (0.80939 2.888752 4.3) // 457
    (-0.438724 0.14239 4.3) // 458
    (-0.436787 0.126916 4.326802) // 459
    (1.004639 -2.826783 4.3) // 460
    (-0.438724 3.0 4.3) // 461
    (-0.438724 1.5 6.898076) // 462
    (1.004639 -1.413391 1.851934) // 463
    (-0.43485 0.095967 4.326802) // 464
    (1.195203 -1.375817 1.917015) // 465
    (-0.438724 -1.5 6.898076) // 466
    (1.195203 1.375817 1.917015) // 467
    (-0.432913 0.080493 4.3) // 468
    (1.380195 1.331828 1.993207) // 469
    (-0.438724 -3.0 4.3) // 470
    (1.380195 2.663656 4.3) // 471
    (-0.447257 0.135785 4.3) // 472
    (-0.445643 0.123185 4.321824) // 473
    (1.558752 -2.563258 4.3) // 474
    (-0.447257 3.0 4.3) // 475
    (-0.447257 1.5 6.898076) // 476
    (1.558752 -1.281629 2.080153) // 477
    (-0.444029 0.097985 4.321824) // 478
    (1.730041 -1.225455 2.17745) // 479
    (-0.447257 -1.5 6.898076) // 480
    (1.730041 1.225455 2.17745) // 481
    (-0.442415 0.085384 4.3) // 482
    (1.893264 1.163567 2.284643) // 483
    (-0.447257 -3.0 4.3) // 484
    (1.893264 2.327134 4.3) // 485
    (-0.453765 0.129112 4.3) // 486
    (-0.452513 0.119507 4.316637) // 487
    (2.047659 -2.192508 4.3) // 488
    (-0.453765 3.0 4.3) // 489
    (-0.453765 1.5 6.898076) // 490
    (2.047659 -1.096254 2.401232) // 491
    (-0.451261 0.100296 4.316637) // 492
    (2.192508 -1.02383 2.526675) // 493
    (-0.453765 -1.5 6.898076) // 494
    (2.192508 1.02383 2.526675) // 495
    (-0.450008 0.090691 4.3) // 496
    (2.327134 0.946632 2.660385) // 497
    (-0.453765 -3.0 4.3) // 498
    (2.327134 1.893264 4.3) // 499
    (-0.458231 0.122407 4.3) // 500
    (-0.457372 0.115905 4.311261) // 501
    (2.45091 -1.730041 4.3) // 502
    (-0.458231 3.0 4.3) // 503
    (-0.458231 1.5 6.898076) // 504
    (2.45091 -0.86502 2.801741) // 505
    (-0.456514 0.102902 4.311261) // 506
    (2.563258 -0.779376 2.950081) // 507
    (-0.458231 -1.5 6.898076) // 508
    (2.563258 0.779376 2.950081) // 509
    (-0.455655 0.096401 4.3) // 510
    (2.663656 0.690098 3.104716) // 511
    (-0.458231 -3.0 4.3) // 512
    (2.663656 1.380195 4.3) // 513
    (-0.460643 0.115697 4.3) // 514
    (-0.460204 0.112399 4.305711) // 515
    (2.751634 -1.195203 4.3) // 516
    (-0.460643 3.0 4.3) // 517
    (-0.460643 1.5 6.898076) // 518
    (2.751634 -0.597602 3.264924) // 519
    (-0.459766 0.105804 4.305711) // 520
    (2.826783 -0.502319 3.429957) // 521
    (-0.460643 -1.5 6.898076) // 522
    (2.826783 0.502319 3.429957) // 523
    (-0.459327 0.102507 4.3) // 524
    (2.888752 0.404695 3.599047) // 525
    (-0.460643 -3.0 4.3) // 526
    (2.888752 0.80939 4.3) // 527
    (-0.461 0.109 4.3) // 528
    (2.937252 -0.610368 4.3) // 529
    (-0.461 3.0 4.3) // 530
    (-0.461 1.5 6.898076) // 531
    (2.937252 -0.305184 3.771406) // 532
    (2.972058 -0.20425 3.946229) // 533
    (-0.461 -1.5 6.898076) // 534
    (2.972058 0.20425 3.946229) // 535
    (2.993006 0.102364 4.122701) // 536
    (-0.461 -3.0 4.3) // 537
    (2.993006 0.204727 4.3) // 538
);

blocks
(
);

edges
(
);

boundary
(
);

mergePatchPairs
(
);
