FoamFile
{
    version     2.0;
format      ascii;
class       dictionary;
object      blockMeshDict;
}
convertToMeters 1;

vertices
(
    (1.185 0.0 0.0) // 0
    (1.182908 0.000499 0.0) // 1
    (0.844744 0.06139 2.360136) // 2
    (0.8462 0.06104 2.3604) // 3
    (1.185 15.0 0.0) // 4
    (1.182908 15.0 0.0) // 5
    (0.844744 15.0 2.360136) // 6
    (0.8462 15.0 2.3604) // 7
    (1.182861 -0.000216 0.0) // 8
    (0.844711 0.060878 2.36013) // 9
    (1.182861 -15.0 0.0) // 10
    (1.185 -15.0 0.0) // 11
    (0.8462 -15.0 2.3604) // 12
    (0.844711 -15.0 2.36013) // 13
    (15.0 0.06104 2.3604) // 14
    (15.0 0.0 0.0) // 15
    (15.0 15.0 2.3604) // 16
    (15.0 15.0 0.0) // 17
    (15.0 -15.0 2.3604) // 18
    (15.0 -15.0 0.0) // 19
    (1.176644 0.001987 0.0) // 20
    (0.840381 0.062432 2.359346) // 21
    (1.176644 15.0 0.0) // 22
    (0.840381 15.0 2.359346) // 23
    (1.176456 -0.000864 0.0) // 24
    (0.84025 0.060395 2.359323) // 25
    (1.176456 -15.0 0.0) // 26
    (0.84025 -15.0 2.359323) // 27
    (1.166229 0.004449 0.0) // 28
    (0.833125 0.064158 2.358033) // 29
    (1.166229 15.0 0.0) // 30
    (0.833125 15.0 2.358033) // 31
    (1.165812 -0.001937 0.0) // 32
    (0.832834 0.059593 2.357981) // 33
    (1.165812 -15.0 0.0) // 34
    (0.832834 -15.0 2.357981) // 35
    (1.151702 0.007854 0.0) // 36
    (0.822998 0.066546 2.356202) // 37
    (1.151702 15.0 0.0) // 38
    (0.822998 15.0 2.356202) // 39
    (1.150971 -0.003425 0.0) // 40
    (0.822489 0.058481 2.35611) // 41
    (1.150971 -15.0 0.0) // 42
    (0.822489 -15.0 2.35611) // 43
    (1.133116 0.012162 0.0) // 44
    (0.810033 0.069568 2.353858) // 45
    (1.133116 15.0 0.0) // 46
    (0.810033 15.0 2.353858) // 47
    (1.131999 -0.00531 0.0) // 48
    (0.809254 0.057069 2.353717) // 49
    (1.131999 -15.0 0.0) // 50
    (0.809254 -15.0 2.353717) // 51
    (1.110537 0.01732 0.0) // 52
    (0.794268 0.07319 2.351011) // 53
    (1.110537 15.0 0.0) // 54
    (0.794268 15.0 2.351011) // 55
    (1.108975 -0.007582 0.0) // 56
    (0.793177 0.055367 2.350814) // 57
    (1.108975 -15.0 0.0) // 58
    (0.793177 -15.0 2.350814) // 59
    (1.08405 0.023273 0.0) // 60
    (0.775754 0.077372 2.347672) // 61
    (1.08405 15.0 0.0) // 62
    (0.775754 15.0 2.347672) // 63
    (1.081995 -0.010216 0.0) // 64
    (0.774317 0.05339 2.347413) // 65
    (1.081995 -15.0 0.0) // 66
    (0.774317 -15.0 2.347413) // 67
    (1.053752 0.029951 0.0) // 68
    (0.754551 0.082068 2.343852) // 69
    (1.053752 15.0 0.0) // 70
    (0.754551 15.0 2.343852) // 71
    (1.051172 -0.01319 0.0) // 72
    (0.752744 0.051154 2.343526) // 73
    (1.051172 -15.0 0.0) // 74
    (0.752744 -15.0 2.343526) // 75
    (1.019758 0.037282 0.0) // 76
    (0.730728 0.087229 2.339565) // 77
    (1.019758 15.0 0.0) // 78
    (0.730728 15.0 2.339565) // 79
    (1.016637 -0.016484 0.0) // 80
    (0.728539 0.048673 2.339172) // 81
    (1.016637 -15.0 0.0) // 82
    (0.728539 -15.0 2.339172) // 83
    (0.982191 0.045185 0.0) // 84
    (0.70436 0.092798 2.334829) // 85
    (0.982191 15.0 0.0) // 86
    (0.70436 15.0 2.334829) // 87
    (0.978533 -0.020071 0.0) // 88
    (0.70179 0.045965 2.334368) // 89
    (0.978533 -15.0 0.0) // 90
    (0.70179 -15.0 2.334368) // 91
    (0.941195 0.053581 0.0) // 92
    (0.675536 0.098722 2.32966) // 93
    (0.941195 15.0 0.0) // 94
    (0.675536 15.0 2.32966) // 95
    (0.937016 -0.023929 0.0) // 96
    (0.672595 0.043047 2.329133) // 97
    (0.937016 -15.0 0.0) // 98
    (0.672595 -15.0 2.329133) // 99
    (0.896923 0.062381 0.0) // 100
    (0.64435 0.104938 2.324078) // 101
    (0.896923 15.0 0.0) // 102
    (0.64435 15.0 2.324078) // 103
    (0.892258 -0.028033 0.0) // 104
    (0.641061 0.039934 2.32349) // 105
    (0.892258 -15.0 0.0) // 106
    (0.641061 -15.0 2.32349) // 107
    (0.849543 0.071501 0.0) // 108
    (0.61091 0.111391 2.318104) // 109
    (0.849543 15.0 0.0) // 110
    (0.61091 15.0 2.318104) // 111
    (0.844441 -0.032357 0.0) // 112
    (0.607305 0.036646 2.317461) // 113
    (0.844441 -15.0 0.0) // 114
    (0.607305 -15.0 2.317461) // 115
    (0.799239 0.080851 0.0) // 116
    (0.57533 0.118017 2.311761) // 117
    (0.799239 15.0 0.0) // 118
    (0.57533 15.0 2.311761) // 119
    (0.793761 -0.036877 0.0) // 120
    (0.571451 0.0332 2.311071) // 121
    (0.793761 -15.0 0.0) // 122
    (0.571451 -15.0 2.311071) // 123
    (0.746199 0.09034 0.0) // 124
    (0.537732 0.124752 2.305074) // 125
    (0.746199 15.0 0.0) // 126
    (0.537732 15.0 2.305074) // 127
    (0.740426 -0.041563 0.0) // 128
    (0.533635 0.029616 2.304346) // 129
    (0.740426 -15.0 0.0) // 130
    (0.533635 -15.0 2.304346) // 131
    (0.690629 0.099885 0.0) // 132
    (0.498249 0.131538 2.298067) // 133
    (0.690629 15.0 0.0) // 134
    (0.498249 15.0 2.298067) // 135
    (0.684648 -0.046396 0.0) // 136
    (0.493993 0.02591 2.297313) // 137
    (0.684648 -15.0 0.0) // 138
    (0.493993 -15.0 2.297313) // 139
    (0.632742 0.109394 0.0) // 140
    (0.456851 0.138338 2.29296) // 141
    (0.632742 15.0 0.0) // 142
    (0.456851 15.0 2.29296) // 143
    (0.626654 -0.05134 0.0) // 144
    (0.452452 0.022201 2.29296) // 145
    (0.626654 -15.0 0.0) // 146
    (0.452452 -15.0 2.29296) // 147
    (0.572766 0.118778 0.0) // 148
    (0.413515 0.145118 2.29296) // 149
    (0.572766 15.0 0.0) // 150
    (0.413515 15.0 2.29296) // 151
    (0.566678 -0.056369 0.0) // 152
    (0.409116 0.018567 2.29296) // 153
    (0.566678 -15.0 0.0) // 154
    (0.409116 -15.0 2.29296) // 155
    (0.510934 0.127952 0.0) // 156
    (0.368839 0.151747 2.29296) // 157
    (0.510934 15.0 0.0) // 158
    (0.368839 15.0 2.29296) // 159
    (0.504958 -0.061446 0.0) // 160
    (0.364521 0.014898 2.29296) // 161
    (0.504958 -15.0 0.0) // 162
    (0.364521 -15.0 2.29296) // 163
    (0.447487 0.136831 0.0) // 164
    (0.322995 0.158162 2.29296) // 165
    (0.447487 15.0 0.0) // 166
    (0.322995 15.0 2.29296) // 167
    (0.441737 -0.066534 0.0) // 168
    (0.318841 0.011223 2.29296) // 169
    (0.441737 -15.0 0.0) // 170
    (0.318841 -15.0 2.29296) // 171
    (0.382676 0.145325 0.0) // 172
    (0.276167 0.1643 2.29296) // 173
    (0.382676 15.0 0.0) // 174
    (0.276167 15.0 2.29296) // 175
    (0.377267 -0.071589 0.0) // 176
    (0.272259 0.00757 2.29296) // 177
    (0.377267 -15.0 0.0) // 178
    (0.272259 -15.0 2.29296) // 179
    (0.316753 0.153355 0.0) // 180
    (0.228535 0.170102 2.29296) // 181
    (0.316753 15.0 0.0) // 182
    (0.228535 15.0 2.29296) // 183
    (0.311805 -0.076567 0.0) // 184
    (0.224959 0.003973 2.29296) // 185
    (0.311805 -15.0 0.0) // 186
    (0.224959 -15.0 2.29296) // 187
    (0.249983 0.160834 0.0) // 188
    (0.180291 0.175506 2.29296) // 189
    (0.249983 15.0 0.0) // 190
    (0.180291 15.0 2.29296) // 191
    (0.245605 -0.081415 0.0) // 192
    (0.177128 0.00047 2.29296) // 193
    (0.245605 -15.0 0.0) // 194
    (0.177128 -15.0 2.29296) // 195
    (0.182633 0.167683 0.0) // 196
    (0.131628 0.180454 2.29296) // 197
    (0.182633 15.0 0.0) // 198
    (0.131628 15.0 2.29296) // 199
    (0.178928 -0.086076 0.0) // 200
    (0.12895 -0.002897 2.29296) // 201
    (0.178928 -15.0 0.0) // 202
    (0.12895 -15.0 2.29296) // 203
    (0.114968 0.173823 0.0) // 204
    (0.082737 0.18489 2.29296) // 205
    (0.114968 15.0 0.0) // 206
    (0.082737 15.0 2.29296) // 207
    (0.112032 -0.090486 0.0) // 208
    (0.080615 -0.006084 2.29296) // 209
    (0.112032 -15.0 0.0) // 210
    (0.080615 -15.0 2.29296) // 211
    (0.047264 0.179178 0.0) // 212
    (0.033818 0.18876 2.29296) // 213
    (0.047264 15.0 0.0) // 214
    (0.033818 15.0 2.29296) // 215
    (0.045177 -0.094579 0.0) // 216
    (0.03231 -0.009041 2.29296) // 217
    (0.045177 -15.0 0.0) // 218
    (0.03231 -15.0 2.29296) // 219
    (-0.02021 0.183677 0.0) // 220
    (-0.014935 0.19201 2.29296) // 221
    (-0.0 15.0 0.0) // 222
    (-0.0 15.0 2.29296) // 223
    (-0.02138 -0.098289 0.0) // 224
    (-0.015781 -0.011722 2.29296) // 225
    (-0.0 -15.0 0.0) // 226
    (-0.0 -15.0 2.29296) // 227
    (-0.087177 0.187251 0.0) // 228
    (-0.063322 0.194593 2.29296) // 229
    (-1.023636 14.965032 0.0) // 230
    (-1.023636 14.965032 2.29296) // 231
    (-0.087381 -0.101542 0.0) // 232
    (-0.063469 -0.014072 2.29296) // 233
    (-1.023636 -14.965032 0.0) // 234
    (-1.023636 -14.965032 2.29296) // 235
    (-0.153867 0.189754 0.0) // 236
    (-0.111508 0.196401 2.29296) // 237
    (-2.0425 14.860289 0.0) // 238
    (-2.0425 14.860289 2.29296) // 239
    (-0.152076 -0.104351 0.0) // 240
    (-0.110214 -0.016102 2.29296) // 241
    (-2.0425 -14.860289 0.0) // 242
    (-2.0425 -14.860289 2.29296) // 243
    (-0.21964 0.190952 0.0) // 244
    (-0.159032 0.197267 2.29296) // 245
    (-3.05184 14.686261 0.0) // 246
    (-3.05184 14.686261 2.29296) // 247
    (-0.215583 -0.106824 0.0) // 248
    (-0.156101 -0.017889 2.29296) // 249
    (-3.05184 -14.686261 0.0) // 250
    (-3.05184 -14.686261 2.29296) // 251
    (-0.284095 0.190813 0.0) // 252
    (-0.205603 0.197166 2.29296) // 253
    (-4.046952 14.443759 0.0) // 254
    (-4.046952 14.443759 2.29296) // 255
    (-0.277797 -0.108877 0.0) // 256
    (-0.201052 -0.019372 2.29296) // 257
    (-4.046952 -14.443759 0.0) // 258
    (-4.046952 -14.443759 2.29296) // 259
    (-0.346951 0.189325 0.0) // 260
    (-0.25102 0.196092 2.29296) // 261
    (-5.023194 14.133914 0.0) // 262
    (-5.023194 14.133914 2.29296) // 263
    (-0.338493 -0.110433 0.0) // 264
    (-0.244908 -0.020497 2.29296) // 265
    (-5.023194 -14.133914 0.0) // 266
    (-5.023194 -14.133914 2.29296) // 267
    (-0.407945 0.186495 0.0) // 268
    (-0.29509 0.194046 2.29296) // 269
    (-5.976016 13.75817 0.0) // 270
    (-5.976016 13.75817 2.29296) // 271
    (-0.397453 -0.111408 0.0) // 272
    (-0.287509 -0.021201 2.29296) // 273
    (-5.976016 -13.75817 0.0) // 274
    (-5.976016 -13.75817 2.29296) // 275
    (-0.466812 0.182344 0.0) // 276
    (-0.337624 0.191047 2.29296) // 277
    (-6.900976 13.318278 0.0) // 278
    (-6.900976 13.318278 2.29296) // 279
    (-0.454466 -0.11173 0.0) // 280
    (-0.328703 -0.021433 2.29296) // 281
    (-6.900976 -13.318278 0.0) // 282
    (-6.900976 -13.318278 2.29296) // 283
    (-0.523299 0.176909 0.0) // 284
    (-0.378438 0.18712 2.29296) // 285
    (-7.793759 12.816291 0.0) // 286
    (-7.793759 12.816291 2.29296) // 287
    (-0.509327 -0.111331 0.0) // 288
    (-0.368342 -0.021145 2.29296) // 289
    (-7.793759 -12.816291 0.0) // 290
    (-7.793759 -12.816291 2.29296) // 291
    (-0.577165 0.170244 0.0) // 292
    (-0.417359 0.182305 2.29296) // 293
    (-8.650205 12.254548 0.0) // 294
    (-8.650205 12.254548 2.29296) // 295
    (-0.561834 -0.11015 0.0) // 296
    (-0.406282 -0.020292 2.29296) // 297
    (-8.650205 -12.254548 0.0) // 298
    (-8.650205 -12.254548 2.29296) // 299
    (-0.628186 0.162414 0.0) // 300
    (-0.454223 0.176647 2.29296) // 301
    (-9.466319 11.635669 0.0) // 302
    (-9.466319 11.635669 2.29296) // 303
    (-0.611798 -0.10814 0.0) // 304
    (-0.442383 -0.01884 2.29296) // 305
    (-9.466319 -11.635669 0.0) // 306
    (-9.466319 -11.635669 2.29296) // 307
    (-0.676144 0.153503 0.0) // 308
    (-0.488875 0.170208 2.29296) // 309
    (-10.238297 10.962539 0.0) // 310
    (-10.238297 10.962539 2.29296) // 311
    (-0.659034 -0.10526 0.0) // 312
    (-0.476513 -0.016759 2.29296) // 313
    (-10.238297 -10.962539 0.0) // 314
    (-10.238297 -10.962539 2.29296) // 315
    (-0.720845 0.143605 0.0) // 316
    (-0.521173 0.163056 2.29296) // 317
    (-10.962539 10.238297 0.0) // 318
    (-10.962539 10.238297 2.29296) // 319
    (-0.703367 -0.101477 0.0) // 320
    (-0.508545 -0.014026 2.29296) // 321
    (-10.962539 -10.238297 0.0) // 322
    (-10.962539 -10.238297 2.29296) // 323
    (-0.762102 0.132819 0.0) // 324
    (-0.550983 0.155263 2.29296) // 325
    (-11.635669 9.466319 0.0) // 326
    (-11.635669 9.466319 2.29296) // 327
    (-0.744621 -0.096776 0.0) // 328
    (-0.538353 -0.010629 2.29296) // 329
    (-11.635669 -9.466319 0.0) // 330
    (-11.635669 -9.466319 2.29296) // 331
    (-0.79975 0.121257 0.0) // 332
    (-0.578186 0.14691 2.29296) // 333
    (-12.254548 8.650205 0.0) // 334
    (-12.254548 8.650205 2.29296) // 335
    (-0.782645 -0.091144 0.0) // 336
    (-0.565826 -0.006559 2.29296) // 337
    (-12.254548 -8.650205 0.0) // 338
    (-12.254548 -8.650205 2.29296) // 339
    (-0.833646 0.109036 0.0) // 340
    (-0.602677 0.138079 2.29296) // 341
    (-12.816291 7.793759 0.0) // 342
    (-12.816291 7.793759 2.29296) // 343
    (-0.817278 -0.084578 0.0) // 344
    (-0.59085 -0.001815 2.29296) // 345
    (-12.816291 -7.793759 0.0) // 346
    (-12.816291 -7.793759 2.29296) // 347
    (-0.863659 0.096268 0.0) // 348
    (-0.624362 0.128854 2.29296) // 349
    (-13.318278 6.900976 0.0) // 350
    (-13.318278 6.900976 2.29296) // 351
    (-0.848386 -0.077086 0.0) // 352
    (-0.613327 0.003598 2.29296) // 353
    (-13.318278 -6.900976 0.0) // 354
    (-13.318278 -6.900976 2.29296) // 355
    (-0.889677 0.083067 0.0) // 356
    (-0.643162 0.119315 2.29296) // 357
    (-13.75817 5.976016 0.0) // 358
    (-13.75817 5.976016 2.29296) // 359
    (-0.875835 -0.068679 0.0) // 360
    (-0.63316 0.009673 2.29296) // 361
    (-13.75817 -5.976016 0.0) // 362
    (-13.75817 -5.976016 2.29296) // 363
    (-0.911608 0.069538 0.0) // 364
    (-0.659008 0.10954 2.29296) // 365
    (-14.133914 5.023194 0.0) // 366
    (-14.133914 5.023194 2.29296) // 367
    (-0.899507 -0.05937 0.0) // 368
    (-0.650264 0.016399 2.29296) // 369
    (-14.133914 -5.023194 0.0) // 370
    (-14.133914 -5.023194 2.29296) // 371
    (-0.929378 0.055782 0.0) // 372
    (-0.671847 0.099601 2.29296) // 373
    (-14.443759 4.046952 0.0) // 374
    (-14.443759 4.046952 2.29296) // 375
    (-0.919295 -0.049182 0.0) // 376
    (-0.664562 0.02376 2.29296) // 377
    (-14.443759 -4.046952 0.0) // 378
    (-14.443759 -4.046952 2.29296) // 379
    (-0.942933 0.041885 0.0) // 380
    (-0.681641 0.08956 2.29296) // 381
    (-14.686261 3.05184 0.0) // 382
    (-14.686261 3.05184 2.29296) // 383
    (-0.935108 -0.03813 0.0) // 384
    (-0.675988 0.031745 2.29296) // 385
    (-14.686261 -3.05184 0.0) // 386
    (-14.686261 -3.05184 2.29296) // 387
    (-0.952233 0.027921 0.0) // 388
    (-0.688361 0.07947 2.29296) // 389
    (-14.860289 2.0425 0.0) // 390
    (-14.860289 2.0425 2.29296) // 391
    (-0.946869 -0.026239 0.0) // 392
    (-0.684486 0.040337 2.29296) // 393
    (-14.860289 -2.0425 0.0) // 394
    (-14.860289 -2.0425 2.29296) // 395
    (-0.957256 0.013947 0.0) // 396
    (-0.691991 0.069373 2.29296) // 397
    (-14.965032 1.023636 0.0) // 398
    (-14.965032 1.023636 2.29296) // 399
    (-0.954515 -0.013522 0.0) // 400
    (-0.69001 0.049526 2.29296) // 401
    (-14.965032 -1.023636 0.0) // 402
    (-14.965032 -1.023636 2.29296) // 403
    (-0.958 0.0 0.0) // 404
    (-0.692528 0.059296 2.29296) // 405
    (-15.0 0.0 0.0) // 406
    (-15.0 0.0 2.29296) // 407
    (0.57898 0.109243 4.264804) // 408
    (0.58 0.109 4.265) // 409
    (0.57898 15.0 4.264804) // 410
    (0.58 15.0 4.265) // 411
    (0.578957 0.108894 4.2648) // 412
    (0.58 -15.0 4.265) // 413
    (0.578957 -15.0 4.2648) // 414
    (15.0 0.109 4.265) // 415
    (15.0 15.0 4.265) // 416
    (15.0 -15.0 4.265) // 417
    (0.575925 0.109969 4.264219) // 418
    (0.575925 15.0 4.264219) // 419
    (0.575833 0.108579 4.264201) // 420
    (0.575833 -15.0 4.264201) // 421
    (0.570845 0.11117 4.263245) // 422
    (0.570845 15.0 4.263245) // 423
    (0.570641 0.108055 4.263206) // 424
    (0.570641 -15.0 4.263206) // 425
    (0.563758 0.112831 4.261887) // 426
    (0.563758 15.0 4.261887) // 427
    (0.563401 0.10733 4.261819) // 428
    (0.563401 -15.0 4.261819) // 429
    (0.554688 0.114933 4.26015) // 430
    (0.554688 15.0 4.26015) // 431
    (0.554143 0.106409 4.260046) // 432
    (0.554143 -15.0 4.260046) // 433
    (0.543665 0.117451 4.258039) // 434
    (0.543665 15.0 4.258039) // 435
    (0.542902 0.1053 4.257893) // 436
    (0.542902 -15.0 4.257893) // 437
    (0.530729 0.120359 4.255563) // 438
    (0.530729 15.0 4.255563) // 439
    (0.529725 0.104014 4.255371) // 440
    (0.529725 -15.0 4.255371) // 441
    (0.515924 0.123622 4.252731) // 442
    (0.515924 15.0 4.252731) // 443
    (0.514663 0.10256 4.25249) // 444
    (0.514663 -15.0 4.25249) // 445
    (0.499303 0.127207 4.249553) // 446
    (0.499303 15.0 4.249553) // 447
    (0.497777 0.10095 4.249262) // 448
    (0.497777 -15.0 4.249262) // 449
    (0.480924 0.131074 4.246042) // 450
    (0.480924 15.0 4.246042) // 451
    (0.479134 0.099194 4.2457) // 452
    (0.479134 -15.0 4.2457) // 453
    (0.460853 0.135185 4.242209) // 454
    (0.460853 15.0 4.242209) // 455
    (0.458806 0.097306 4.241819) // 456
    (0.458806 -15.0 4.241819) // 457
    (0.439162 0.139497 4.238071) // 458
    (0.439162 15.0 4.238071) // 459
    (0.436875 0.095295 4.237635) // 460
    (0.436875 -15.0 4.237635) // 461
    (0.415929 0.143971 4.233642) // 462
    (0.415929 15.0 4.233642) // 463
    (0.413426 0.093173 4.233165) // 464
    (0.413426 -15.0 4.233165) // 465
    (0.39124 0.148562 4.228939) // 466
    (0.39124 15.0 4.228939) // 467
    (0.388551 0.090955 4.228427) // 468
    (0.388551 -15.0 4.228427) // 469
    (0.365186 0.153226 4.223981) // 470
    (0.365186 15.0 4.223981) // 471
    (0.362348 0.088652 4.223442) // 472
    (0.362348 -15.0 4.223442) // 473
    (0.337862 0.157923 4.218787) // 474
    (0.337862 15.0 4.218787) // 475
    (0.334919 0.086274 4.218228) // 476
    (0.334919 -15.0 4.218228) // 477
    (0.309412 0.162599 4.215) // 478
    (0.309412 15.0 4.215) // 479
    (0.306429 0.083845 4.215) // 480
    (0.306429 -15.0 4.215) // 481
    (0.280026 0.167197 4.215) // 482
    (0.280026 15.0 4.215) // 483
    (0.277042 0.081381 4.215) // 484
    (0.277042 -15.0 4.215) // 485
    (0.24973 0.171692 4.215) // 486
    (0.24973 15.0 4.215) // 487
    (0.246801 0.078893 4.215) // 488
    (0.246801 -15.0 4.215) // 489
    (0.218643 0.176042 4.215) // 490
    (0.218643 15.0 4.215) // 491
    (0.215825 0.076401 4.215) // 492
    (0.215825 -15.0 4.215) // 493
    (0.186887 0.180205 4.215) // 494
    (0.186887 15.0 4.215) // 495
    (0.184237 0.073924 4.215) // 496
    (0.184237 -15.0 4.215) // 497
    (0.154587 0.184139 4.215) // 498
    (0.154587 15.0 4.215) // 499
    (0.152163 0.071485 4.215) // 500
    (0.152163 -15.0 4.215) // 501
    (0.121872 0.187804 4.215) // 502
    (0.121872 15.0 4.215) // 503
    (0.119727 0.069109 4.215) // 504
    (0.119727 -15.0 4.215) // 505
    (0.088873 0.191159 4.215) // 506
    (0.088873 15.0 4.215) // 507
    (0.087058 0.066826 4.215) // 508
    (0.087058 -15.0 4.215) // 509
    (0.055719 0.194168 4.215) // 510
    (0.055719 15.0 4.215) // 511
    (0.054281 0.064665 4.215) // 512
    (0.054281 -15.0 4.215) // 513
    (0.022547 0.196792 4.215) // 514
    (0.022547 15.0 4.215) // 515
    (0.021524 0.062659 4.215) // 516
    (0.021524 -15.0 4.215) // 517
    (-0.010514 0.198995 4.215) // 518
    (-0.0 15.0 4.215) // 519
    (-0.011087 0.060842 4.215) // 520
    (-0.0 -15.0 4.215) // 521
    (-0.043325 0.200747 4.215) // 522
    (-1.023636 14.965032 4.215) // 523
    (-0.043425 0.059248 4.215) // 524
    (-1.023636 -14.965032 4.215) // 525
    (-0.076001 0.201973 4.215) // 526
    (-2.0425 14.860289 4.215) // 527
    (-0.075123 0.057871 4.215) // 528
    (-2.0425 -14.860289 4.215) // 529
    (-0.108228 0.20256 4.215) // 530
    (-3.05184 14.686261 4.215) // 531
    (-0.10624 0.05666 4.215) // 532
    (-3.05184 -14.686261 4.215) // 533
    (-0.139809 0.202492 4.215) // 534
    (-4.046952 14.443759 4.215) // 535
    (-0.136723 0.055654 4.215) // 536
    (-4.046952 -14.443759 4.215) // 537
    (-0.170606 0.201763 4.215) // 538
    (-5.023194 14.133914 4.215) // 539
    (-0.166462 0.054891 4.215) // 540
    (-5.023194 -14.133914 4.215) // 541
    (-0.200491 0.200376 4.215) // 542
    (-5.976016 13.75817 4.215) // 543
    (-0.19535 0.054414 4.215) // 544
    (-5.976016 -13.75817 4.215) // 545
    (-0.229334 0.198342 4.215) // 546
    (-6.900976 13.318278 4.215) // 547
    (-0.223285 0.054256 4.215) // 548
    (-6.900976 -13.318278 4.215) // 549
    (-0.257011 0.19568 4.215) // 550
    (-7.793759 12.816291 4.215) // 551
    (-0.250165 0.054451 4.215) // 552
    (-7.793759 -12.816291 4.215) // 553
    (-0.283403 0.192414 4.215) // 554
    (-8.650205 12.254548 4.215) // 555
    (-0.275892 0.05503 4.215) // 556
    (-8.650205 -12.254548 4.215) // 557
    (-0.308402 0.188577 4.215) // 558
    (-9.466319 11.635669 4.215) // 559
    (-0.300372 0.056015 4.215) // 560
    (-9.466319 -11.635669 4.215) // 561
    (-0.3319 0.184212 4.215) // 562
    (-10.238297 10.962539 4.215) // 563
    (-0.323517 0.057426 4.215) // 564
    (-10.238297 -10.962539 4.215) // 565
    (-0.353802 0.179362 4.215) // 566
    (-10.962539 10.238297 4.215) // 567
    (-0.345238 0.059279 4.215) // 568
    (-10.962539 -10.238297 4.215) // 569
    (-0.374016 0.174077 4.215) // 570
    (-11.635669 9.466319 4.215) // 571
    (-0.365451 0.061583 4.215) // 572
    (-11.635669 -9.466319 4.215) // 573
    (-0.392463 0.168412 4.215) // 574
    (-12.254548 8.650205 4.215) // 575
    (-0.384082 0.064342 4.215) // 576
    (-12.254548 -8.650205 4.215) // 577
    (-0.409071 0.162424 4.215) // 578
    (-12.816291 7.793759 4.215) // 579
    (-0.401051 0.06756 4.215) // 580
    (-12.816291 -7.793759 4.215) // 581
    (-0.423776 0.156168 4.215) // 582
    (-13.318278 6.900976 4.215) // 583
    (-0.416292 0.07123 4.215) // 584
    (-13.318278 -6.900976 4.215) // 585
    (-0.436524 0.1497 4.215) // 586
    (-13.75817 5.976016 4.215) // 587
    (-0.429742 0.07535 4.215) // 588
    (-13.75817 -5.976016 4.215) // 589
    (-0.44727 0.143071 4.215) // 590
    (-14.133914 5.023194 4.215) // 591
    (-0.44134 0.079911 4.215) // 592
    (-14.133914 -5.023194 4.215) // 593
    (-0.455976 0.136331 4.215) // 594
    (-14.443759 4.046952 4.215) // 595
    (-0.451036 0.084902 4.215) // 596
    (-14.443759 -4.046952 4.215) // 597
    (-0.462617 0.129522 4.215) // 598
    (-14.686261 3.05184 4.215) // 599
    (-0.458784 0.090317 4.215) // 600
    (-14.686261 -3.05184 4.215) // 601
    (-0.467174 0.12268 4.215) // 602
    (-14.860289 2.0425 4.215) // 603
    (-0.464546 0.096144 4.215) // 604
    (-14.860289 -2.0425 4.215) // 605
    (-0.469636 0.115833 4.215) // 606
    (-14.965032 1.023636 4.215) // 607
    (-0.468293 0.102374 4.215) // 608
    (-14.965032 -1.023636 4.215) // 609
    (-0.47 0.109 4.215) // 610
    (-15.0 0.0 4.215) // 611
    (0.566996 0.10924 4.3) // 612
    (0.568 0.109 4.3) // 613
    (0.566996 15.0 4.3) // 614
    (0.568 15.0 4.3) // 615
    (0.566973 0.108896 4.3) // 616
    (0.568 -15.0 4.3) // 617
    (0.566973 -15.0 4.3) // 618
    (15.0 0.109 4.3) // 619
    (15.0 15.0 4.3) // 620
    (15.0 -15.0 4.3) // 621
    (0.563988 0.109954 4.3) // 622
    (0.563988 15.0 4.3) // 623
    (0.563897 0.108585 4.3) // 624
    (0.563897 -15.0 4.3) // 625
    (0.558987 0.111136 4.3) // 626
    (0.558987 15.0 4.3) // 627
    (0.558786 0.10807 4.3) // 628
    (0.558786 -15.0 4.3) // 629
    (0.552011 0.112771 4.3) // 630
    (0.552011 15.0 4.3) // 631
    (0.551661 0.107356 4.3) // 632
    (0.551661 -15.0 4.3) // 633
    (0.543087 0.11484 4.3) // 634
    (0.543087 15.0 4.3) // 635
    (0.542551 0.10645 4.3) // 636
    (0.542551 -15.0 4.3) // 637
    (0.532245 0.117316 4.3) // 638
    (0.532245 15.0 4.3) // 639
    (0.531495 0.105359 4.3) // 640
    (0.531495 -15.0 4.3) // 641
    (0.519527 0.120175 4.3) // 642
    (0.519527 15.0 4.3) // 643
    (0.51854 0.104095 4.3) // 644
    (0.51854 -15.0 4.3) // 645
    (0.504979 0.123381 4.3) // 646
    (0.504979 15.0 4.3) // 647
    (0.50374 0.102667 4.3) // 648
    (0.50374 -15.0 4.3) // 649
    (0.488656 0.126902 4.3) // 650
    (0.488656 15.0 4.3) // 651
    (0.487158 0.101085 4.3) // 652
    (0.487158 -15.0 4.3) // 653
    (0.470617 0.130696 4.3) // 654
    (0.470617 15.0 4.3) // 655
    (0.468861 0.099362 4.3) // 656
    (0.468861 -15.0 4.3) // 657
    (0.450933 0.134728 4.3) // 658
    (0.450933 15.0 4.3) // 659
    (0.448926 0.09751 4.3) // 660
    (0.448926 -15.0 4.3) // 661
    (0.429675 0.138953 4.3) // 662
    (0.429675 15.0 4.3) // 663
    (0.427434 0.09554 4.3) // 664
    (0.427434 -15.0 4.3) // 665
    (0.406924 0.143333 4.3) // 666
    (0.406924 15.0 4.3) // 667
    (0.404474 0.093463 4.3) // 668
    (0.404474 -15.0 4.3) // 669
    (0.38277 0.147822 4.3) // 670
    (0.38277 15.0 4.3) // 671
    (0.38014 0.091293 4.3) // 672
    (0.38014 -15.0 4.3) // 673
    (0.357302 0.152379 4.3) // 674
    (0.357302 15.0 4.3) // 675
    (0.35453 0.089043 4.3) // 676
    (0.35453 -15.0 4.3) // 677
    (0.330619 0.156962 4.3) // 678
    (0.330619 15.0 4.3) // 679
    (0.327747 0.086722 4.3) // 680
    (0.327747 -15.0 4.3) // 681
    (0.302824 0.161527 4.3) // 682
    (0.302824 15.0 4.3) // 683
    (0.2999 0.084348 4.3) // 684
    (0.2999 -15.0 4.3) // 685
    (0.274025 0.166033 4.3) // 686
    (0.274025 15.0 4.3) // 687
    (0.271102 0.081933 4.3) // 688
    (0.271102 -15.0 4.3) // 689
    (0.244335 0.170439 4.3) // 690
    (0.244335 15.0 4.3) // 691
    (0.241465 0.079495 4.3) // 692
    (0.241465 -15.0 4.3) // 693
    (0.21387 0.174702 4.3) // 694
    (0.21387 15.0 4.3) // 695
    (0.211109 0.077053 4.3) // 696
    (0.211109 -15.0 4.3) // 697
    (0.18275 0.178781 4.3) // 698
    (0.18275 15.0 4.3) // 699
    (0.180152 0.074625 4.3) // 700
    (0.180152 -15.0 4.3) // 701
    (0.151096 0.182636 4.3) // 702
    (0.151096 15.0 4.3) // 703
    (0.14872 0.072235 4.3) // 704
    (0.14872 -15.0 4.3) // 705
    (0.119035 0.186227 4.3) // 706
    (0.119035 15.0 4.3) // 707
    (0.116933 0.069907 4.3) // 708
    (0.116933 -15.0 4.3) // 709
    (0.086696 0.189516 4.3) // 710
    (0.086696 15.0 4.3) // 711
    (0.084916 0.067669 4.3) // 712
    (0.084916 -15.0 4.3) // 713
    (0.054205 0.192464 4.3) // 714
    (0.054205 15.0 4.3) // 715
    (0.052795 0.065552 4.3) // 716
    (0.052795 -15.0 4.3) // 717
    (0.021696 0.195036 4.3) // 718
    (0.021696 15.0 4.3) // 719
    (0.020693 0.063586 4.3) // 720
    (0.020693 -15.0 4.3) // 721
    (-0.010703 0.197196 4.3) // 722
    (-0.0 15.0 4.3) // 723
    (-0.011265 0.061805 4.3) // 724
    (-0.0 -15.0 4.3) // 725
    (-0.042859 0.198912 4.3) // 726
    (-1.023636 14.965032 4.3) // 727
    (-0.042956 0.060243 4.3) // 728
    (-1.023636 -14.965032 4.3) // 729
    (-0.074881 0.200114 4.3) // 730
    (-2.0425 14.860289 4.3) // 731
    (-0.074021 0.058894 4.3) // 732
    (-2.0425 -14.860289 4.3) // 733
    (-0.106463 0.200689 4.3) // 734
    (-3.05184 14.686261 4.3) // 735
    (-0.104515 0.057706 4.3) // 736
    (-3.05184 -14.686261 4.3) // 737
    (-0.137412 0.200622 4.3) // 738
    (-4.046952 14.443759 4.3) // 739
    (-0.134388 0.056721 4.3) // 740
    (-4.046952 -14.443759 4.3) // 741
    (-0.167594 0.199908 4.3) // 742
    (-5.023194 14.133914 4.3) // 743
    (-0.163533 0.055974 4.3) // 744
    (-5.023194 -14.133914 4.3) // 745
    (-0.196881 0.198549 4.3) // 746
    (-5.976016 13.75817 4.3) // 747
    (-0.191843 0.055505 4.3) // 748
    (-5.976016 -13.75817 4.3) // 749
    (-0.225147 0.196556 4.3) // 750
    (-6.900976 13.318278 4.3) // 751
    (-0.219219 0.055351 4.3) // 752
    (-6.900976 -13.318278 4.3) // 753
    (-0.25227 0.193946 4.3) // 754
    (-7.793759 12.816291 4.3) // 755
    (-0.245561 0.055542 4.3) // 756
    (-7.793759 -12.816291 4.3) // 757
    (-0.278135 0.190746 4.3) // 758
    (-8.650205 12.254548 4.3) // 759
    (-0.270774 0.056109 4.3) // 760
    (-8.650205 -12.254548 4.3) // 761
    (-0.302634 0.186986 4.3) // 762
    (-9.466319 11.635669 4.3) // 763
    (-0.294765 0.057075 4.3) // 764
    (-9.466319 -11.635669 4.3) // 765
    (-0.325662 0.182707 4.3) // 766
    (-10.238297 10.962539 4.3) // 767
    (-0.317446 0.058458 4.3) // 768
    (-10.238297 -10.962539 4.3) // 769
    (-0.347126 0.177954 4.3) // 770
    (-10.962539 10.238297 4.3) // 771
    (-0.338733 0.060274 4.3) // 772
    (-10.962539 -10.238297 4.3) // 773
    (-0.366936 0.172775 4.3) // 774
    (-11.635669 9.466319 4.3) // 775
    (-0.358542 0.062531 4.3) // 776
    (-11.635669 -9.466319 4.3) // 777
    (-0.385013 0.167224 4.3) // 778
    (-12.254548 8.650205 4.3) // 779
    (-0.3768 0.065236 4.3) // 780
    (-12.254548 -8.650205 4.3) // 781
    (-0.401289 0.161356 4.3) // 782
    (-12.816291 7.793759 4.3) // 783
    (-0.39343 0.068388 4.3) // 784
    (-12.816291 -7.793759 4.3) // 785
    (-0.4157 0.155225 4.3) // 786
    (-13.318278 6.900976 4.3) // 787
    (-0.408367 0.071986 4.3) // 788
    (-13.318278 -6.900976 4.3) // 789
    (-0.428193 0.148886 4.3) // 790
    (-13.75817 5.976016 4.3) // 791
    (-0.421547 0.076023 4.3) // 792
    (-13.75817 -5.976016 4.3) // 793
    (-0.438724 0.14239 4.3) // 794
    (-14.133914 5.023194 4.3) // 795
    (-0.432913 0.080493 4.3) // 796
    (-14.133914 -5.023194 4.3) // 797
    (-0.447257 0.135785 4.3) // 798
    (-14.443759 4.046952 4.3) // 799
    (-0.442415 0.085384 4.3) // 800
    (-14.443759 -4.046952 4.3) // 801
    (-0.453765 0.129112 4.3) // 802
    (-14.686261 3.05184 4.3) // 803
    (-0.450008 0.090691 4.3) // 804
    (-14.686261 -3.05184 4.3) // 805
    (-0.458231 0.122407 4.3) // 806
    (-14.860289 2.0425 4.3) // 807
    (-0.455655 0.096401 4.3) // 808
    (-14.860289 -2.0425 4.3) // 809
    (-0.460643 0.115697 4.3) // 810
    (-14.965032 1.023636 4.3) // 811
    (-0.459327 0.102507 4.3) // 812
    (-14.965032 -1.023636 4.3) // 813
    (-0.461 0.109 4.3) // 814
    (-15.0 0.0 4.3) // 815
    (0.566995 0.109238 4.300027) // 816
    (0.566995 14.815325 6.646517) // 817
    (0.568 14.815325 6.646517) // 818
    (15.0 14.815325 6.646517) // 819
    (0.566993 0.109231 4.300053) // 820
    (0.566993 14.265848 8.935255) // 821
    (0.568 14.265848 8.935255) // 822
    (15.0 14.265848 8.935255) // 823
    (0.566992 0.109221 4.300078) // 824
    (0.566992 13.365098 11.109857) // 825
    (0.568 13.365098 11.109857) // 826