FoamFile
{
    version     2.0;
format      ascii;
class       dictionary;
object      blockMeshDict;
}
convertToMeters 1;

vertices
(
    (1.182908 0.000499 0.0) // 0
    (1.176644 0.001987 0.0) // 1
    (0.840338 0.062355 2.359609) // 2
    (0.844705 0.061376 2.3604) // 3
    (2.12132 2.12132 0.0) // 4
    (2.016903 2.220834 0.0) // 5
    (2.016903 2.220834 2.359609) // 6
    (2.12132 2.12132 2.3604) // 7
    (1.176456 -0.000864 0.0) // 8
    (1.182861 -0.000216 0.0) // 9
    (0.844675 0.060906 2.360395) // 10
    (0.840218 0.060485 2.359587) // 11
    (2.016903 -2.220834 0.0) // 12
    (2.12132 -2.12132 0.0) // 13
    (2.12132 -2.12132 2.360395) // 14
    (2.016903 -2.220834 2.359587) // 15
    (1.166229 0.004449 0.0) // 16
    (0.833077 0.063977 2.358293) // 17
    (1.907822 2.315214 0.0) // 18
    (1.907822 2.315214 2.358293) // 19
    (1.165812 -0.001937 0.0) // 20
    (0.832809 0.059787 2.358245) // 21
    (1.907822 -2.315214 0.0) // 22
    (1.907822 -2.315214 2.358245) // 23
    (1.151702 0.007854 0.0) // 24
    (0.822941 0.066222 2.356458) // 25
    (1.794332 2.404241 0.0) // 26
    (1.794332 2.404241 2.356458) // 27
    (1.150971 -0.003425 0.0) // 28
    (0.822473 0.058819 2.356373) // 29
    (1.794332 -2.404241 0.0) // 30
    (1.794332 -2.404241 2.356373) // 31
    (1.133116 0.012162 0.0) // 32
    (0.809965 0.069062 2.354111) // 33
    (1.676693 2.48771 0.0) // 34
    (1.676693 2.48771 2.354111) // 35
    (1.131999 -0.00531 0.0) // 36
    (0.80925 0.057588 2.353981) // 37
    (1.676693 -2.48771 0.0) // 38
    (1.676693 -2.48771 2.353981) // 39
    (1.110537 0.01732 0.0) // 40
    (0.794189 0.072466 2.351259) // 41
    (1.555178 2.565428 0.0) // 42
    (1.555178 2.565428 2.351259) // 43
    (1.108975 -0.007582 0.0) // 44
    (0.793187 0.056103 2.351077) // 45
    (1.555178 -2.565428 0.0) // 46
    (1.555178 -2.565428 2.351077) // 47
    (1.08405 0.023273 0.0) // 48
    (0.775662 0.076399 2.347914) // 49
    (1.430067 2.637216 0.0) // 50
    (1.430067 2.637216 2.347914) // 51
    (1.081995 -0.010216 0.0) // 52
    (0.774343 0.054377 2.347675) // 53
    (1.430067 -2.637216 0.0) // 54
    (1.430067 -2.637216 2.347675) // 55
    (1.053752 0.029951 0.0) // 56
    (0.754446 0.080814 2.344088) // 57
    (1.301651 2.702907 0.0) // 58
    (1.301651 2.702907 2.344088) // 59
    (1.051172 -0.01319 0.0) // 60
    (0.752786 0.05242 2.343788) // 61
    (1.301651 -2.702907 0.0) // 62
    (1.301651 -2.702907 2.343788) // 63
    (1.019758 0.037282 0.0) // 64
    (0.730608 0.085667 2.339795) // 65
    (1.170226 2.762349 0.0) // 66
    (1.170226 2.762349 2.339795) // 67
    (1.016637 -0.016484 0.0) // 68
    (0.728598 0.050247 2.339432) // 69
    (1.170226 -2.762349 0.0) // 70
    (1.170226 -2.762349 2.339432) // 71
    (0.982191 0.045185 0.0) // 72
    (0.704227 0.090904 2.335051) // 73
    (1.036095 2.815405 0.0) // 74
    (1.036095 2.815405 2.335051) // 75
    (0.978533 -0.020071 0.0) // 76
    (0.701866 0.04787 2.334626) // 77
    (1.036095 -2.815405 0.0) // 78
    (1.036095 -2.815405 2.334626) // 79
    (0.941195 0.053581 0.0) // 80
    (0.67539 0.096477 2.329875) // 81
    (0.899569 2.861953 0.0) // 82
    (0.899569 2.861953 2.329875) // 83
    (0.937016 -0.023929 0.0) // 84
    (0.672686 0.045303 2.329389) // 85
    (0.899569 -2.861953 0.0) // 86
    (0.899569 -2.861953 2.329389) // 87
    (0.896923 0.062381 0.0) // 88
    (0.644193 0.102325 2.324285) // 89
    (0.760964 2.901885 0.0) // 90
    (0.760964 2.901885 2.324285) // 91
    (0.892258 -0.028033 0.0) // 92
    (0.641168 0.042558 2.323743) // 93
    (0.760964 -2.901885 0.0) // 94
    (0.760964 -2.901885 2.323743) // 95
    (0.849543 0.071501 0.0) // 96
    (0.610742 0.108396 2.318304) // 97
    (0.620599 2.935108 0.0) // 98
    (0.620599 2.935108 2.318304) // 99
    (0.844441 -0.032357 0.0) // 100
    (0.607426 0.039652 2.31771) // 101
    (0.620599 -2.935108 0.0) // 102
    (0.620599 -2.935108 2.31771) // 103
    (0.799239 0.080851 0.0) // 104
    (0.575154 0.11463 2.311953) // 105
    (0.4788 2.961545 0.0) // 106
    (0.4788 2.961545 2.311953) // 107
    (0.793761 -0.036877 0.0) // 108
    (0.571585 0.036597 2.311316) // 109
    (0.4788 -2.961545 0.0) // 110
    (0.4788 -2.961545 2.311316) // 111
    (0.746199 0.09034 0.0) // 112
    (0.53755 0.120968 2.305258) // 113
    (0.335893 2.981137 0.0) // 114
    (0.335893 2.981137 2.305258) // 115
    (0.740426 -0.041563 0.0) // 116
    (0.533779 0.033409 2.304587) // 117
    (0.335893 -2.981137 0.0) // 118
    (0.335893 -2.981137 2.304587) // 119
    (0.690629 0.099885 0.0) // 120
    (0.498063 0.127353 2.298244) // 121
    (0.192211 2.993836 0.0) // 122
    (0.192211 2.993836 2.298244) // 123
    (0.684648 -0.046396 0.0) // 124
    (0.494145 0.030104 2.297549) // 125
    (0.192211 -2.993836 0.0) // 126
    (0.192211 -2.993836 2.297549) // 127
    (0.632742 0.109394 0.0) // 128
    (0.456677 0.133747 2.29296) // 129
    (0.048084 2.999615 0.0) // 130
    (0.048084 2.999615 2.29296) // 131
    (0.626654 -0.05134 0.0) // 132
    (0.452626 0.026791 2.29296) // 133
    (0.048084 -2.999615 0.0) // 134
    (0.048084 -2.999615 2.29296) // 135
    (0.572766 0.118778 0.0) // 136
    (0.413342 0.140116 2.29296) // 137
    (-0.096155 2.998459 0.0) // 138
    (-0.096155 2.998459 2.29296) // 139
    (0.566678 -0.056369 0.0) // 140
    (0.40929 0.023569 2.29296) // 141
    (-0.096155 -2.998459 0.0) // 142
    (-0.096155 -2.998459 2.29296) // 143
    (0.510934 0.127952 0.0) // 144
    (0.368668 0.146338 2.29296) // 145
    (-0.240171 2.990371 0.0) // 146
    (-0.240171 2.990371 2.29296) // 147
    (0.504958 -0.061446 0.0) // 148
    (0.364691 0.020308 2.29296) // 149
    (-0.240171 -2.990371 0.0) // 150
    (-0.240171 -2.990371 2.29296) // 151
    (0.447487 0.136831 0.0) // 152
    (0.322831 0.152354 2.29296) // 153
    (-0.383631 2.97537 0.0) // 154
    (-0.383631 2.97537 2.29296) // 155
    (0.441737 -0.066534 0.0) // 156
    (0.319005 0.017031 2.29296) // 157
    (-0.383631 -2.97537 0.0) // 158
    (-0.383631 -2.97537 2.29296) // 159
    (0.382676 0.145325 0.0) // 160
    (0.276012 0.158105 2.29296) // 161
    (-0.526205 2.953491 0.0) // 162
    (-0.526205 2.953491 2.29296) // 163
    (0.377267 -0.071589 0.0) // 164
    (0.272413 0.013765 2.29296) // 165
    (-0.526205 -2.953491 0.0) // 166
    (-0.526205 -2.953491 2.29296) // 167
    (0.316753 0.153355 0.0) // 168
    (0.228394 0.163535 2.29296) // 169
    (-0.667563 2.924784 0.0) // 170
    (-0.667563 2.924784 2.29296) // 171
    (0.311805 -0.076567 0.0) // 172
    (0.225101 0.010539 2.29296) // 173
    (-0.667563 -2.924784 0.0) // 174
    (-0.667563 -2.924784 2.29296) // 175
    (0.249983 0.160834 0.0) // 176
    (0.180166 0.168588 2.29296) // 177
    (-0.807377 2.889315 0.0) // 178
    (-0.807377 2.889315 2.29296) // 179
    (0.245605 -0.081415 0.0) // 180
    (0.177253 0.007388 2.29296) // 181
    (-0.807377 -2.889315 0.0) // 182
    (-0.807377 -2.889315 2.29296) // 183
    (0.182633 0.167683 0.0) // 184
    (0.131521 0.173207 2.29296) // 185
    (-0.945325 2.847167 0.0) // 186
    (-0.945325 2.847167 2.29296) // 187
    (0.178928 -0.086076 0.0) // 188
    (0.129056 0.004349 2.29296) // 189
    (-0.945325 -2.847167 0.0) // 190
    (-0.945325 -2.847167 2.29296) // 191
    (0.114968 0.173823 0.0) // 192
    (0.082653 0.177343 2.29296) // 193
    (-1.081087 2.798437 0.0) // 194
    (-1.081087 2.798437 2.29296) // 195
    (0.112032 -0.090486 0.0) // 196
    (0.080699 0.001464 2.29296) // 197
    (-1.081087 -2.798437 0.0) // 198
    (-1.081087 -2.798437 2.29296) // 199
    (0.047264 0.179178 0.0) // 200
    (0.033758 0.180942 2.29296) // 201
    (-1.21435 2.743238 0.0) // 202
    (-1.21435 2.743238 2.29296) // 203
    (0.045177 -0.094579 0.0) // 204
    (0.032369 -0.001223 2.29296) // 205
    (-1.21435 -2.743238 0.0) // 206
    (-1.21435 -2.743238 2.29296) // 207
    (-0.02021 0.183677 0.0) // 208
    (-0.014968 0.183958 2.29296) // 209
    (-1.344806 2.681697 0.0) // 210
    (-1.344806 2.681697 2.29296) // 211
    (-0.02138 -0.098289 0.0) // 212
    (-0.015747 -0.003669 2.29296) // 213
    (-1.344806 -2.681697 0.0) // 214
    (-1.344806 -2.681697 2.29296) // 215
    (-0.087177 0.187251 0.0) // 216
    (-0.063328 0.186346 2.29296) // 217
    (-1.472153 2.613956 0.0) // 218
    (-1.472153 2.613956 2.29296) // 219
    (-0.087381 -0.101542 0.0) // 220
    (-0.063463 -0.005825 2.29296) // 221
    (-1.472153 -2.613956 0.0) // 222
    (-1.472153 -2.613956 2.29296) // 223
    (-0.153867 0.189754 0.0) // 224
    (-0.111457 0.188002 2.29296) // 225
    (-1.596096 2.540173 0.0) // 226
    (-1.596096 2.540173 2.29296) // 227
    (-0.152076 -0.104351 0.0) // 228
    (-0.110265 -0.007703 2.29296) // 229
    (-1.596096 -2.540173 0.0) // 230
    (-1.596096 -2.540173 2.29296) // 231
    (-0.21964 0.190952 0.0) // 232
    (-0.158916 0.188763 2.29296) // 233
    (-1.71635 2.460517 0.0) // 234
    (-1.71635 2.460517 2.29296) // 235
    (-0.215583 -0.106824 0.0) // 236
    (-0.156217 -0.009385 2.29296) // 237
    (-1.71635 -2.460517 0.0) // 238
    (-1.71635 -2.460517 2.29296) // 239
    (-0.284095 0.190813 0.0) // 240
    (-0.205423 0.188607 2.29296) // 241
    (-1.832636 2.375173 0.0) // 242
    (-1.832636 2.375173 2.29296) // 243
    (-0.277797 -0.108877 0.0) // 244
    (-0.201232 -0.010814 2.29296) // 245
    (-1.832636 -2.375173 0.0) // 246
    (-1.832636 -2.375173 2.29296) // 247
    (-0.346951 0.189325 0.0) // 248
    (-0.250779 0.187531 2.29296) // 249
    (-1.944685 2.284338 0.0) // 250
    (-1.944685 2.284338 2.29296) // 251
    (-0.338493 -0.110433 0.0) // 252
    (-0.24515 -0.011936 2.29296) // 253
    (-1.944685 -2.284338 0.0) // 254
    (-1.944685 -2.284338 2.29296) // 255
    (-0.407945 0.186495 0.0) // 256
    (-0.29479 0.185539 2.29296) // 257
    (-2.052239 2.188222 0.0) // 258
    (-2.052239 2.188222 2.29296) // 259
    (-0.397453 -0.111408 0.0) // 260
    (-0.287809 -0.012694 2.29296) // 261
    (-2.052239 -2.188222 0.0) // 262
    (-2.052239 -2.188222 2.29296) // 263
    (-0.466812 0.182344 0.0) // 264
    (-0.337271 0.182649 2.29296) // 265
    (-2.155048 2.087048 0.0) // 266
    (-2.155048 2.087048 2.29296) // 267
    (-0.454466 -0.11173 0.0) // 268
    (-0.329056 -0.013035 2.29296) // 269
    (-2.155048 -2.087048 0.0) // 270
    (-2.155048 -2.087048 2.29296) // 271
    (-0.523299 0.176909 0.0) // 272
    (-0.378039 0.178889 2.29296) // 273
    (-2.252875 1.981048 0.0) // 274
    (-2.252875 1.981048 2.29296) // 275
    (-0.509327 -0.111331 0.0) // 276
    (-0.368741 -0.012914 2.29296) // 277
    (-2.252875 -1.981048 0.0) // 278
    (-2.252875 -1.981048 2.29296) // 279
    (-0.577165 0.170244 0.0) // 280
    (-0.416921 0.174297 2.29296) // 281
    (-2.345494 1.870469 0.0) // 282
    (-2.345494 1.870469 2.29296) // 283
    (-0.561834 -0.11015 0.0) // 284
    (-0.406719 -0.012285 2.29296) // 285
    (-2.345494 -1.870469 0.0) // 286
    (-2.345494 -1.870469 2.29296) // 287
    (-0.628186 0.162414 0.0) // 288
    (-0.453756 0.16892 2.29296) // 289
    (-2.432691 1.755566 0.0) // 290
    (-2.432691 1.755566 2.29296) // 291
    (-0.611798 -0.10814 0.0) // 292
    (-0.442851 -0.011113 2.29296) // 293
    (-2.432691 -1.755566 0.0) // 294
    (-2.432691 -1.755566 2.29296) // 295
    (-0.676144 0.153503 0.0) // 296
    (-0.488387 0.162819 2.29296) // 297
    (-2.514264 1.636605 0.0) // 298
    (-2.514264 1.636605 2.29296) // 299
    (-0.659034 -0.10526 0.0) // 300
    (-0.477002 -0.009369 2.29296) // 301
    (-2.514264 -1.636605 0.0) // 302
    (-2.514264 -1.636605 2.29296) // 303
    (-0.720845 0.143605 0.0) // 304
    (-0.520674 0.156057 2.29296) // 305
    (-2.590025 1.51386 0.0) // 306
    (-2.590025 1.51386 2.29296) // 307
    (-0.703367 -0.101477 0.0) // 308
    (-0.509044 -0.007027 2.29296) // 309
    (-2.590025 -1.51386 0.0) // 310
    (-2.590025 -1.51386 2.29296) // 311
    (-0.762102 0.132819 0.0) // 312
    (-0.550484 0.148706 2.29296) // 313
    (-2.659798 1.387615 0.0) // 314
    (-2.659798 1.387615 2.29296) // 315
    (-0.744621 -0.096776 0.0) // 316
    (-0.538852 -0.004072 2.29296) // 317
    (-2.659798 -1.387615 0.0) // 318
    (-2.659798 -1.387615 2.29296) // 319
    (-0.79975 0.121257 0.0) // 320
    (-0.577697 0.140844 2.29296) // 321
    (-2.723422 1.258162 0.0) // 322
    (-2.723422 1.258162 2.29296) // 323
    (-0.782645 -0.091144 0.0) // 324
    (-0.566315 -0.000493 2.29296) // 325
    (-2.723422 -1.258162 0.0) // 326
    (-2.723422 -1.258162 2.29296) // 327
    (-0.833646 0.109036 0.0) // 328
    (-0.60221 0.13255 2.29296) // 329
    (-2.78075 1.125801 0.0) // 330
    (-2.78075 1.125801 2.29296) // 331
    (-0.817278 -0.084578 0.0) // 332
    (-0.591318 0.003714 2.29296) // 333
    (-2.78075 -1.125801 0.0) // 334
    (-2.78075 -1.125801 2.29296) // 335
    (-0.863659 0.096268 0.0) // 336
    (-0.623926 0.123903 2.29296) // 337
    (-2.83165 0.990837 0.0) // 338
    (-2.83165 0.990837 2.29296) // 339
    (-0.848386 -0.077086 0.0) // 340
    (-0.613763 0.008549 2.29296) // 341
    (-2.83165 -0.990837 0.0) // 342
    (-2.83165 -0.990837 2.29296) // 343
    (-0.889677 0.083067 0.0) // 344
    (-0.642766 0.114982 2.29296) // 345
    (-2.876004 0.853583 0.0) // 346
    (-2.876004 0.853583 2.29296) // 347
    (-0.875835 -0.068679 0.0) // 348
    (-0.633556 0.014006 2.29296) // 349
    (-2.876004 -0.853583 0.0) // 350
    (-2.876004 -0.853583 2.29296) // 351
    (-0.911608 0.069538 0.0) // 352
    (-0.658662 0.105859 2.29296) // 353
    (-2.913708 0.714355 0.0) // 354
    (-2.913708 0.714355 2.29296) // 355
    (-0.899507 -0.05937 0.0) // 356
    (-0.65061 0.02008 2.29296) // 357
    (-2.913708 -0.714355 0.0) // 358
    (-2.913708 -0.714355 2.29296) // 359
    (-0.929378 0.055782 0.0) // 360
    (-0.67156 0.096603 2.29296) // 361
    (-2.944677 0.573476 0.0) // 362
    (-2.944677 0.573476 2.29296) // 363
    (-0.919295 -0.049182 0.0) // 364
    (-0.66485 0.026758 2.29296) // 365
    (-2.944677 -0.573476 0.0) // 366
    (-2.944677 -0.573476 2.29296) // 367
    (-0.942933 0.041885 0.0) // 368
    (-0.681418 0.087274 2.29296) // 369
    (-2.968839 0.431271 0.0) // 370
    (-2.968839 0.431271 2.29296) // 371
    (-0.935108 -0.03813 0.0) // 372
    (-0.676211 0.03403 2.29296) // 373
    (-2.968839 -0.431271 0.0) // 374
    (-2.968839 -0.431271 2.29296) // 375
    (-0.952233 0.027921 0.0) // 376
    (-0.688208 0.077923 2.29296) // 377
    (-2.986137 0.288069 0.0) // 378
    (-2.986137 0.288069 2.29296) // 379
    (-0.946869 -0.026239 0.0) // 380
    (-0.684639 0.041884 2.29296) // 381
    (-2.986137 -0.288069 0.0) // 382
    (-2.986137 -0.288069 2.29296) // 383
    (-0.957256 0.013947 0.0) // 384
    (-0.691912 0.068588 2.29296) // 385
    (-2.996532 0.144201 0.0) // 386
    (-2.996532 0.144201 2.29296) // 387
    (-0.954515 -0.013522 0.0) // 388
    (-0.690089 0.05031 2.29296) // 389
    (-2.996532 -0.144201 0.0) // 390
    (-2.996532 -0.144201 2.29296) // 391
    (-0.958 0.0 0.0) // 392
    (-0.692528 0.059296 2.29296) // 393
    (-3.0 0.0 0.0) // 394
    (-3.0 0.0 2.29296) // 395
    (0.575916 0.10982 4.264413) // 396
    (0.578978 0.109206 4.265) // 397
    (2.016903 2.220834 4.264413) // 398
    (2.12132 2.12132 4.265) // 399
    (0.57896 0.108932 4.264997) // 400
    (0.575844 0.108727 4.264399) // 401
    (2.12132 -2.12132 4.264997) // 402
    (2.016903 -2.220834 4.264399) // 403
    (0.570825 0.110836 4.263436) // 404
    (1.907822 2.315214 4.263436) // 405
    (0.570664 0.108389 4.263405) // 406
    (1.907822 -2.315214 4.263405) // 407
    (0.563721 0.112241 4.262074) // 408
    (1.794332 2.404241 4.262074) // 409
    (0.563439 0.107919 4.26202) // 410
    (1.794332 -2.404241 4.26202) // 411
    (0.55463 0.114019 4.260331) // 412
    (1.676693 2.48771 4.260331) // 413
    (0.554201 0.107322 4.260248) // 414
    (1.676693 -2.48771 4.260248) // 415
    (0.543584 0.116149 4.258214) // 416
    (1.555178 2.565428 4.258214) // 417
    (0.542985 0.106602 4.258099) // 418
    (1.555178 -2.565428 4.258099) // 419
    (0.530622 0.118608 4.255731) // 420
    (1.430067 2.637216 4.255731) // 421
    (0.529833 0.105766 4.25558) // 422
    (1.430067 -2.637216 4.25558) // 423
    (0.51579 0.121365 4.252891) // 424
    (1.301651 2.702907 4.252891) // 425
    (0.514799 0.104817 4.252701) // 426
    (1.301651 -2.702907 4.252701) // 427
    (0.499141 0.124393 4.249705) // 428
    (1.170226 2.762349 4.249705) // 429
    (0.497942 0.103763 4.249476) // 430
    (1.170226 -2.762349 4.249476) // 431
    (0.480734 0.127658 4.246185) // 432
    (1.036095 2.815405 4.246185) // 433
    (0.479327 0.102611 4.245916) // 434
    (1.036095 -2.815405 4.245916) // 435
    (0.460636 0.131126 4.242344) // 436
    (0.899569 2.861953 4.242344) // 437
    (0.459027 0.101364 4.242037) // 438
    (0.899569 -2.861953 4.242037) // 439
    (0.438919 0.134761 4.238197) // 440
    (0.760964 2.901885 4.238197) // 441
    (0.437122 0.100031 4.237854) // 442
    (0.760964 -2.901885 4.237854) // 443
    (0.415664 0.138528 4.23376) // 444
    (0.620599 2.935108 4.23376) // 445
    (0.413697 0.098617 4.233385) // 446
    (0.620599 -2.935108 4.233385) // 447
    (0.390955 0.142389 4.22905) // 448
    (0.4788 2.961545 4.22905) // 449
    (0.388842 0.097127 4.228648) // 450
    (0.4788 -2.961545 4.228648) // 451
    (0.364885 0.146308 4.224085) // 452
    (0.335893 2.981137 4.224085) // 453
    (0.362655 0.09557 4.22366) // 454
    (0.335893 -2.981137 4.22366) // 455
    (0.33755 0.150246 4.218884) // 456
    (0.192211 2.993836 4.218884) // 457
    (0.335238 0.093952 4.218444) // 458
    (0.192211 -2.993836 4.218444) // 459
    (0.309093 0.154161 4.215) // 460
    (0.048084 2.999615 4.215) // 461
    (0.306749 0.092283 4.215) // 462
    (0.048084 -2.999615 4.215) // 463
    (0.279706 0.158002 4.215) // 464
    (-0.096155 2.998459 4.215) // 465
    (0.277362 0.090576 4.215) // 466
    (-0.096155 -2.998459 4.215) // 467
    (0.249416 0.16175 4.215) // 468
    (-0.240171 2.990371 4.215) // 469
    (0.247114 0.088837 4.215) // 470
    (-0.240171 -2.990371 4.215) // 471
    (0.218341 0.165366 4.215) // 472
    (-0.383631 2.97537 4.215) // 473
    (0.216127 0.087077 4.215) // 474
    (-0.383631 -2.97537 4.215) // 475
    (0.186603 0.168817 4.215) // 476
    (-0.526205 2.953491 4.215) // 477
    (0.184522 0.085311 4.215) // 478
    (-0.526205 -2.953491 4.215) // 479
    (0.154328 0.172068 4.215) // 480
    (-0.667563 2.924784 4.215) // 481
    (0.152423 0.083554 4.215) // 482
    (-0.667563 -2.924784 4.215) // 483
    (0.121642 0.175087 4.215) // 484
    (-0.807377 2.889315 4.215) // 485
    (0.119957 0.081826 4.215) // 486
    (-0.807377 -2.889315 4.215) // 487
    (0.088678 0.177838 4.215) // 488
    (-0.945325 2.847167 4.215) // 489
    (0.087252 0.080147 4.215) // 490
    (-0.945325 -2.847167 4.215) // 491
    (0.055565 0.180293 4.215) // 492
    (-1.081087 2.798437 4.215) // 493
    (0.054435 0.078541 4.215) // 494
    (-1.081087 -2.798437 4.215) // 495
    (0.022436 0.18242 4.215) // 496
    (-1.21435 2.743238 4.215) // 497
    (0.021633 0.077031 4.215) // 498
    (-1.21435 -2.743238 4.215) // 499
    (-0.010575 0.184194 4.215) // 500
    (-1.344806 2.681697 4.215) // 501
    (-0.011025 0.075645 4.215) // 502
    (-1.344806 -2.681697 4.215) // 503
    (-0.043337 0.185587 4.215) // 504
    (-1.472153 2.613956 4.215) // 505
    (-0.043414 0.074409 4.215) // 506
    (-1.472153 -2.613956 4.215) // 507
    (-0.075907 0.186534 4.215) // 508
    (-1.596096 2.540173 4.215) // 509
    (-0.075218 0.073311 4.215) // 510
    (-1.596096 -2.540173 4.215) // 511
    (-0.108015 0.186928 4.215) // 512
    (-1.71635 2.460517 4.215) // 513
    (-0.106453 0.072292 4.215) // 514
    (-1.71635 -2.460517 4.215) // 515
    (-0.139478 0.186759 4.215) // 516
    (-1.832636 2.375173 4.215) // 517
    (-0.137053 0.071386 4.215) // 518
    (-1.832636 -2.375173 4.215) // 519
    (-0.170163 0.186027 4.215) // 520
    (-1.944685 2.284338 4.215) // 521
    (-0.166906 0.070628 4.215) // 522
    (-1.944685 -2.284338 4.215) // 523
    (-0.19994 0.184738 4.215) // 524
    (-2.052239 2.188222 4.215) // 525
    (-0.195901 0.070052 4.215) // 526
    (-2.052239 -2.188222 4.215) // 527
    (-0.228685 0.182905 4.215) // 528
    (-2.155048 2.087048 4.215) // 529
    (-0.223932 0.069694 4.215) // 530
    (-2.155048 -2.087048 4.215) // 531
    (-0.256277 0.180548 4.215) // 532
    (-2.252875 1.981048 4.215) // 533
    (-0.250898 0.069583 4.215) // 534
    (-2.252875 -1.981048 4.215) // 535
    (-0.282599 0.177694 4.215) // 536
    (-2.345494 1.870469 4.215) // 537
    (-0.276696 0.069749 4.215) // 538
    (-2.345494 -1.870469 4.215) // 539
    (-0.307542 0.174374 4.215) // 540
    (-2.432691 1.755566 4.215) // 541
    (-0.301232 0.070218 4.215) // 542
    (-2.432691 -1.755566 4.215) // 543
    (-0.331002 0.170628 4.215) // 544
    (-2.514264 1.636605 4.215) // 545
    (-0.324415 0.07101 4.215) // 546
    (-2.514264 -1.636605 4.215) // 547
    (-0.352884 0.166495 4.215) // 548
    (-2.590025 1.51386 4.215) // 549
    (-0.346156 0.072145 4.215) // 550
    (-2.590025 -1.51386 4.215) // 551
    (-0.373099 0.162024 4.215) // 552
    (-2.659798 1.387615 4.215) // 553
    (-0.366369 0.073636 4.215) // 554
    (-2.659798 -1.387615 4.215) // 555
    (-0.391565 0.157262 4.215) // 556
    (-2.723422 1.258162 4.215) // 557
    (-0.384979 0.075493 4.215) // 558
    (-2.723422 -1.258162 4.215) // 559
    (-0.408212 0.15226 4.215) // 560
    (-2.78075 1.125801 4.215) // 561
    (-0.401911 0.077724 4.215) // 562
    (-2.78075 -1.125801 4.215) // 563
    (-0.422974 0.147068 4.215) // 564
    (-2.83165 0.990837 4.215) // 565
    (-0.417095 0.080331 4.215) // 566
    (-2.83165 -0.990837 4.215) // 567
    (-0.435797 0.141734 4.215) // 568
    (-2.876004 0.853583 4.215) // 569
    (-0.430469 0.083316 4.215) // 570
    (-2.876004 -0.853583 4.215) // 571
    (-0.446634 0.136304 4.215) // 572
    (-2.913708 0.714355 4.215) // 573
    (-0.441975 0.086678 4.215) // 574
    (-2.913708 -0.714355 4.215) // 575
    (-0.455447 0.130821 4.215) // 576
    (-2.944677 0.573476 4.215) // 577
    (-0.451565 0.090413 4.215) // 578
    (-2.944677 -0.573476 4.215) // 579
    (-0.462207 0.125321 4.215) // 580
    (-2.968839 0.431271 4.215) // 581
    (-0.459194 0.094517 4.215) // 582
    (-2.968839 -0.431271 4.215) // 583
    (-0.466892 0.119837 4.215) // 584
    (-2.986137 0.288069 4.215) // 585
    (-0.464828 0.098987 4.215) // 586
    (-2.986137 -0.288069 4.215) // 587
    (-0.469492 0.114391 4.215) // 588
    (-2.996532 0.144201 4.215) // 589
    (-0.468437 0.103816 4.215) // 590
    (-2.996532 -0.144201 4.215) // 591
    (-0.47 0.109 4.215) // 592
    (-3.0 0.0 4.215) // 593
    (0.563979 0.109808 4.3) // 594
    (0.566994 0.109203 4.3) // 595
    (2.016903 2.220834 4.3) // 596
    (2.12132 2.12132 4.3) // 597
    (0.566976 0.108933 4.3) // 598
    (0.563908 0.108731 4.3) // 599
    (2.12132 -2.12132 4.3) // 600
    (2.016903 -2.220834 4.3) // 601
    (0.558966 0.110808 4.3) // 602
    (1.907822 2.315214 4.3) // 603
    (0.558808 0.108398 4.3) // 604
    (1.907822 -2.315214 4.3) // 605
    (0.551974 0.112191 4.3) // 606
    (1.794332 2.404241 4.3) // 607
    (0.551698 0.107936 4.3) // 608
    (1.794332 -2.404241 4.3) // 609
    (0.543029 0.11394 4.3) // 610
    (1.676693 2.48771 4.3) // 611
    (0.542607 0.107348 4.3) // 612
    (1.676693 -2.48771 4.3) // 613
    (0.532165 0.116035 4.3) // 614
    (1.555178 2.565428 4.3) // 615
    (0.531575 0.106641 4.3) // 616
    (1.555178 -2.565428 4.3) // 617
    (0.519421 0.118452 4.3) // 618
    (1.430067 2.637216 4.3) // 619
    (0.518646 0.105818 4.3) // 620
    (1.430067 -2.637216 4.3) // 621
    (0.504846 0.121162 4.3) // 622
    (1.301651 2.702907 4.3) // 623
    (0.503873 0.104886 4.3) // 624
    (1.301651 -2.702907 4.3) // 625
    (0.488495 0.124136 4.3) // 626
    (1.170226 2.762349 4.3) // 627
    (0.487318 0.103851 4.3) // 628
    (1.170226 -2.762349 4.3) // 629
    (0.470429 0.127339 4.3) // 630
    (1.036095 2.815405 4.3) // 631
    (0.469049 0.10272 4.3) // 632
    (1.036095 -2.815405 4.3) // 633
    (0.450718 0.13074 4.3) // 634
    (0.899569 2.861953 4.3) // 635
    (0.44914 0.101498 4.3) // 636
    (0.899569 -2.861953 4.3) // 637
    (0.429435 0.134302 4.3) // 638
    (0.760964 2.901885 4.3) // 639
    (0.427674 0.100191 4.3) // 640
    (0.760964 -2.901885 4.3) // 641
    (0.406662 0.137989 4.3) // 642
    (0.620599 2.935108 4.3) // 643
    (0.404737 0.098807 4.3) // 644
    (0.620599 -2.935108 4.3) // 645
    (0.382488 0.141765 4.3) // 646
    (0.4788 2.961545 4.3) // 647
    (0.380422 0.09735 4.3) // 648
    (0.4788 -2.961545 4.3) // 649
    (0.357005 0.145593 4.3) // 650
    (0.335893 2.981137 4.3) // 651
    (0.354826 0.095828 4.3) // 652
    (0.335893 -2.981137 4.3) // 653
    (0.330311 0.149436 4.3) // 654
    (0.192211 2.993836 4.3) // 655
    (0.328055 0.094248 4.3) // 656
    (0.192211 -2.993836 4.3) // 657
    (0.302511 0.153257 4.3) // 658
    (0.048084 2.999615 4.3) // 659
    (0.300214 0.092617 4.3) // 660
    (0.048084 -2.999615 4.3) // 661
    (0.273712 0.157022 4.3) // 662
    (-0.096155 2.998459 4.3) // 663
    (0.271414 0.090944 4.3) // 664
    (-0.096155 -2.998459 4.3) // 665
    (0.244028 0.160695 4.3) // 666
    (-0.240171 2.990371 4.3) // 667
    (0.241772 0.08924 4.3) // 668
    (-0.240171 -2.990371 4.3) // 669
    (0.213574 0.164239 4.3) // 670
    (-0.383631 2.97537 4.3) // 671
    (0.211404 0.087516 4.3) // 672
    (-0.383631 -2.97537 4.3) // 673
    (0.182471 0.167621 4.3) // 674
    (-0.526205 2.953491 4.3) // 675
    (0.180431 0.085785 4.3) // 676
    (-0.526205 -2.953491 4.3) // 677
    (0.150841 0.170807 4.3) // 678
    (-0.667563 2.924784 4.3) // 679
    (0.148975 0.084063 4.3) // 680
    (-0.667563 -2.924784 4.3) // 681
    (0.11881 0.173765 4.3) // 682
    (-0.807377 2.889315 4.3) // 683
    (0.117158 0.082369 4.3) // 684
    (-0.807377 -2.889315 4.3) // 685
    (0.086504 0.176461 4.3) // 686
    (-0.945325 2.847167 4.3) // 687
    (0.085107 0.080724 4.3) // 688
    (-0.945325 -2.847167 4.3) // 689
    (0.054054 0.178867 4.3) // 690
    (-1.081087 2.798437 4.3) // 691
    (0.052946 0.07915 4.3) // 692
    (-1.081087 -2.798437 4.3) // 693
    (0.021588 0.180952 4.3) // 694
    (-1.21435 2.743238 4.3) // 695
    (0.0208 0.07767 4.3) // 696
    (-1.21435 -2.743238 4.3) // 697
    (-0.010763 0.18269 4.3) // 698
    (-1.344806 2.681697 4.3) // 699
    (-0.011205 0.076312 4.3) // 700
    (-1.344806 -2.681697 4.3) // 701
    (-0.04287 0.184055 4.3) // 702
    (-1.472153 2.613956 4.3) // 703
    (-0.042946 0.075101 4.3) // 704
    (-1.472153 -2.613956 4.3) // 705
    (-0.074789 0.184983 4.3) // 706
    (-1.596096 2.540173 4.3) // 707
    (-0.074113 0.074024 4.3) // 708
    (-1.596096 -2.540173 4.3) // 709
    (-0.106254 0.185369 4.3) // 710
    (-1.71635 2.460517 4.3) // 711
    (-0.104724 0.073026 4.3) // 712
    (-1.71635 -2.460517 4.3) // 713
    (-0.137088 0.185204 4.3) // 714
    (-1.832636 2.375173 4.3) // 715
    (-0.134712 0.072138 4.3) // 716
    (-1.832636 -2.375173 4.3) // 717
    (-0.16716 0.184486 4.3) // 718
    (-1.944685 2.284338 4.3) // 719
    (-0.163968 0.071395 4.3) // 720
    (-1.944685 -2.284338 4.3) // 721
    (-0.196341 0.183223 4.3) // 722
    (-2.052239 2.188222 4.3) // 723
    (-0.192383 0.070831 4.3) // 724
    (-2.052239 -2.188222 4.3) // 725
    (-0.224511 0.181427 4.3) // 726
    (-2.155048 2.087048 4.3) // 727
    (-0.219854 0.07048 4.3) // 728
    (-2.155048 -2.087048 4.3) // 729
    (-0.251551 0.179117 4.3) // 730
    (-2.252875 1.981048 4.3) // 731
    (-0.24628 0.070371 4.3) // 732
    (-2.252875 -1.981048 4.3) // 733
    (-0.277347 0.17632 4.3) // 734
    (-2.345494 1.870469 4.3) // 735
    (-0.271562 0.070534 4.3) // 736
    (-2.345494 -1.870469 4.3) // 737
    (-0.301791 0.173067 4.3) // 738
    (-2.432691 1.755566 4.3) // 739
    (-0.295608 0.070994 4.3) // 740
    (-2.432691 -1.755566 4.3) // 741
    (-0.324782 0.169395 4.3) // 742
    (-2.514264 1.636605 4.3) // 743
    (-0.318327 0.07177 4.3) // 744
    (-2.514264 -1.636605 4.3) // 745
    (-0.346226 0.165345 4.3) // 746
    (-2.590025 1.51386 4.3) // 747
    (-0.339633 0.072882 4.3) // 748
    (-2.590025 -1.51386 4.3) // 749
    (-0.366037 0.160963 4.3) // 750
    (-2.659798 1.387615 4.3) // 751
    (-0.359442 0.074343 4.3) // 752
    (-2.659798 -1.387615 4.3) // 753
    (-0.384134 0.156297 4.3) // 754
    (-2.723422 1.258162 4.3) // 755
    (-0.37768 0.076164 4.3) // 756
    (-2.723422 -1.258162 4.3) // 757
    (-0.400447 0.151395 4.3) // 758
    (-2.78075 1.125801 4.3) // 759
    (-0.394272 0.078349 4.3) // 760
    (-2.78075 -1.125801 4.3) // 761
    (-0.414914 0.146306 4.3) // 762
    (-2.83165 0.990837 4.3) // 763
    (-0.409153 0.080904 4.3) // 764
    (-2.83165 -0.990837 4.3) // 765
    (-0.427481 0.141079 4.3) // 766
    (-2.876004 0.853583 4.3) // 767
    (-0.422259 0.08383 4.3) // 768
    (-2.876004 -0.853583 4.3) // 769
    (-0.438102 0.135758 4.3) // 770
    (-2.913708 0.714355 4.3) // 771
    (-0.433536 0.087124 4.3) // 772
    (-2.913708 -0.714355 4.3) // 773
    (-0.446738 0.130385 4.3) // 774
    (-2.944677 0.573476 4.3) // 775
    (-0.442934 0.090785 4.3) // 776
    (-2.944677 -0.573476 4.3) // 777
    (-0.453363 0.124995 4.3) // 778
    (-2.968839 0.431271 4.3) // 779
    (-0.450411 0.094807 4.3) // 780
    (-2.968839 -0.431271 4.3) // 781
    (-0.457954 0.11962 4.3) // 782
    (-2.986137 0.288069 4.3) // 783
    (-0.455931 0.099187 4.3) // 784
    (-2.986137 -0.288069 4.3) // 785
    (-0.460502 0.114283 4.3) // 786
    (-2.996532 0.144201 4.3) // 787
    (-0.459468 0.10392 4.3) // 788
    (-2.996532 -0.144201 4.3) // 789
    (-0.461 0.109 4.3) // 790
    (-3.0 0.0 4.3) // 791
    (0.563975 0.109801 4.300084) // 792
    (0.566993 0.109201 4.300021) // 793
    (2.016903 2.193492 4.647415) // 794
    (2.12132 2.095203 4.631848) // 795
    (0.563972 0.109781 4.300166) // 796
    (0.566992 0.109196 4.300042) // 797
    (2.016903 2.112139 4.986275) // 798
    (2.12132 2.017496 4.955524) // 799