FoamFile
{
    version     2.0;
format      ascii;
class       dictionary;
object      blockMeshDict;
}
convertToMeters 1;

vertices
(
    (1.182908 0.000499 0.0) // 0
    (1.185 0.0 0.0) // 1
    (10.606602 10.606602 0.0) // 2
    (10.095188 11.094466 0.0) // 3
    (0.575973 0.109207 4.215) // 4
    (0.577 0.109 4.215) // 5
    (10.606602 10.606602 4.215) // 6
    (10.095188 11.094466 4.215) // 7
    (0.575955 0.108932 4.215) // 8
    (10.606602 -10.606602 4.215) // 9
    (10.095188 -11.094466 4.215) // 10
    (1.182861 -0.000216 0.0) // 11
    (10.606602 -10.606602 0.0) // 12
    (10.095188 -11.094466 0.0) // 13
    (1.176644 0.001987 0.0) // 14
    (9.56136 11.557699 0.0) // 15
    (0.572897 0.109824 4.215) // 16
    (9.56136 11.557699 4.215) // 17
    (0.572824 0.108726 4.215) // 18
    (9.56136 -11.557699 4.215) // 19
    (1.176456 -0.000864 0.0) // 20
    (9.56136 -11.557699 0.0) // 21
    (1.166229 0.004449 0.0) // 22
    (9.006303 11.99527 0.0) // 23
    (0.567782 0.110845 4.215) // 24
    (9.006303 11.99527 4.215) // 25
    (0.56762 0.108386 4.215) // 26
    (9.006303 -11.99527 4.215) // 27
    (1.165812 -0.001937 0.0) // 28
    (9.006303 -11.99527 0.0) // 29
    (1.151702 0.007854 0.0) // 30
    (8.431251 12.406209 0.0) // 31
    (0.560647 0.112256 4.215) // 32
    (8.431251 12.406209 4.215) // 33
    (0.560365 0.107914 4.215) // 34
    (8.431251 -12.406209 4.215) // 35
    (1.150971 -0.003425 0.0) // 36
    (8.431251 -12.406209 0.0) // 37
    (1.133116 0.012162 0.0) // 38
    (7.837478 12.789602 0.0) // 39
    (0.55152 0.114041 4.215) // 40
    (7.837478 12.789602 4.215) // 41
    (0.551089 0.107315 4.215) // 42
    (7.837478 -12.789602 4.215) // 43
    (1.131999 -0.00531 0.0) // 44
    (7.837478 -12.789602 0.0) // 45
    (1.110537 0.01732 0.0) // 46
    (7.226305 13.1446 0.0) // 47
    (0.540434 0.116179 4.215) // 48
    (7.226305 13.1446 4.215) // 49
    (0.539832 0.106592 4.215) // 50
    (7.226305 -13.1446 4.215) // 51
    (1.108975 -0.007582 0.0) // 52
    (7.226305 -13.1446 0.0) // 53
    (1.08405 0.023273 0.0) // 54
    (6.599088 13.470414 0.0) // 55
    (0.52743 0.118645 4.215) // 56
    (6.599088 13.470414 4.215) // 57
    (0.526639 0.105753 4.215) // 58
    (6.599088 -13.470414 4.215) // 59
    (1.081995 -0.010216 0.0) // 60
    (6.599088 -13.470414 0.0) // 61
    (1.053752 0.029951 0.0) // 62
    (5.957218 13.766319 0.0) // 63
    (0.512557 0.12141 4.215) // 64
    (5.957218 13.766319 4.215) // 65
    (0.511564 0.104802 4.215) // 66
    (5.957218 -13.766319 4.215) // 67
    (1.051172 -0.01319 0.0) // 68
    (5.957218 -13.766319 0.0) // 69
    (1.019758 0.037282 0.0) // 70
    (5.302123 14.03166 0.0) // 71
    (0.495873 0.124444 4.215) // 72
    (5.302123 14.03166 4.215) // 73
    (0.494672 0.103746 4.215) // 74
    (5.302123 -14.03166 4.215) // 75
    (1.016637 -0.016484 0.0) // 76
    (5.302123 -14.03166 0.0) // 77
    (0.982191 0.045185 0.0) // 78
    (4.635255 14.265848 0.0) // 79
    (0.477438 0.127713 4.215) // 80
    (4.635255 14.265848 4.215) // 81
    (0.47603 0.102592 4.215) // 82
    (4.635255 -14.265848 4.215) // 83
    (0.978533 -0.020071 0.0) // 84
    (4.635255 -14.265848 0.0) // 85
    (0.941195 0.053581 0.0) // 86
    (3.958096 14.468361 0.0) // 87
    (0.457324 0.131183 4.215) // 88
    (3.958096 14.468361 4.215) // 89
    (0.455715 0.101344 4.215) // 90
    (3.958096 -14.468361 4.215) // 91
    (0.937016 -0.023929 0.0) // 92
    (3.958096 -14.468361 0.0) // 93
    (0.896923 0.062381 0.0) // 94
    (3.272149 14.638751 0.0) // 95
    (0.435607 0.134818 4.215) // 96
    (3.272149 14.638751 4.215) // 97
    (0.43381 0.100011 4.215) // 98
    (3.272149 -14.638751 4.215) // 99
    (0.892258 -0.028033 0.0) // 100
    (3.272149 -14.638751 0.0) // 101
    (0.849543 0.071501 0.0) // 102
    (2.578937 14.77664 0.0) // 103
    (0.412369 0.138581 4.215) // 104
    (2.578937 14.77664 4.215) // 105
    (0.410405 0.098599 4.215) // 106
    (2.578937 -14.77664 4.215) // 107
    (0.844441 -0.032357 0.0) // 108
    (2.578937 -14.77664 0.0) // 109
    (0.799239 0.080851 0.0) // 110
    (1.879999 14.881721 0.0) // 111
    (0.387702 0.142434 4.215) // 112
    (1.879999 14.881721 4.215) // 113
    (0.385593 0.097112 4.215) // 114
    (1.879999 -14.881721 4.215) // 115
    (0.793761 -0.036877 0.0) // 116
    (1.879999 -14.881721 0.0) // 117
    (0.746199 0.09034 0.0) // 118
    (1.176886 14.95376 0.0) // 119
    (0.361699 0.14634 4.215) // 120
    (1.176886 14.95376 4.215) // 121
    (0.359476 0.095559 4.215) // 122
    (1.176886 -14.95376 4.215) // 123
    (0.740426 -0.041563 0.0) // 124
    (1.176886 -14.95376 0.0) // 125
    (0.690629 0.099885 0.0) // 126
    (0.471161 14.992598 0.0) // 127
    (0.334461 0.150261 4.215) // 128
    (0.471161 14.992598 4.215) // 129
    (0.332158 0.093947 4.215) // 130
    (0.471161 -14.992598 4.215) // 131
    (0.684648 -0.046396 0.0) // 132
    (0.471161 -14.992598 0.0) // 133
    (0.632742 0.109394 0.0) // 134
    (-0.23561 14.998149 0.0) // 135
    (0.306093 0.154161 4.215) // 136
    (-0.23561 14.998149 4.215) // 137
    (0.303749 0.092283 4.215) // 138
    (-0.23561 -14.998149 4.215) // 139
    (0.626654 -0.05134 0.0) // 140
    (-0.23561 -14.998149 0.0) // 141
    (0.572766 0.118778 0.0) // 142
    (-0.941858 14.970401 0.0) // 143
    (0.276706 0.158002 4.215) // 144
    (-0.941858 14.970401 4.215) // 145
    (0.274362 0.090576 4.215) // 146
    (-0.941858 -14.970401 4.215) // 147
    (0.566678 -0.056369 0.0) // 148
    (-0.941858 -14.970401 0.0) // 149
    (0.510934 0.127952 0.0) // 150
    (-1.646015 14.909414 0.0) // 151
    (0.246416 0.16175 4.215) // 152
    (-1.646015 14.909414 4.215) // 153
    (0.244114 0.088837 4.215) // 154
    (-1.646015 -14.909414 4.215) // 155
    (0.504958 -0.061446 0.0) // 156
    (-1.646015 -14.909414 0.0) // 157
    (0.447487 0.136831 0.0) // 158
    (-2.346517 14.815325 0.0) // 159
    (0.215341 0.165366 4.215) // 160
    (-2.346517 14.815325 4.215) // 161
    (0.213127 0.087077 4.215) // 162
    (-2.346517 -14.815325 4.215) // 163
    (0.441737 -0.066534 0.0) // 164
    (-2.346517 -14.815325 0.0) // 165
    (0.382676 0.145325 0.0) // 166
    (-3.041809 14.688342 0.0) // 167
    (0.183603 0.168817 4.215) // 168
    (-3.041809 14.688342 4.215) // 169
    (0.181522 0.085311 4.215) // 170
    (-3.041809 -14.688342 4.215) // 171
    (0.377267 -0.071589 0.0) // 172
    (-3.041809 -14.688342 0.0) // 173
    (0.316753 0.153355 0.0) // 174
    (-3.730348 14.528747 0.0) // 175
    (0.151328 0.172068 4.215) // 176
    (-3.730348 14.528747 4.215) // 177
    (0.149423 0.083554 4.215) // 178
    (-3.730348 -14.528747 4.215) // 179
    (0.311805 -0.076567 0.0) // 180
    (-3.730348 -14.528747 0.0) // 181
    (0.249983 0.160834 0.0) // 182
    (-4.410605 14.336895 0.0) // 183
    (0.118642 0.175087 4.215) // 184
    (-4.410605 14.336895 4.215) // 185
    (0.116957 0.081826 4.215) // 186
    (-4.410605 -14.336895 4.215) // 187
    (0.245605 -0.081415 0.0) // 188
    (-4.410605 -14.336895 0.0) // 189
    (0.182633 0.167683 0.0) // 190
    (-5.081069 14.113212 0.0) // 191
    (0.085678 0.177838 4.215) // 192
    (-5.081069 14.113212 4.215) // 193
    (0.084252 0.080147 4.215) // 194
    (-5.081069 -14.113212 4.215) // 195
    (0.178928 -0.086076 0.0) // 196
    (-5.081069 -14.113212 0.0) // 197
    (0.114968 0.173823 0.0) // 198
    (-5.740251 13.858193 0.0) // 199
    (0.052565 0.180293 4.215) // 200
    (-5.740251 13.858193 4.215) // 201
    (0.051435 0.078541 4.215) // 202
    (-5.740251 -13.858193 4.215) // 203
    (0.112032 -0.090486 0.0) // 204
    (-5.740251 -13.858193 0.0) // 205
    (0.047264 0.179178 0.0) // 206
    (-6.386689 13.572406 0.0) // 207
    (0.019436 0.18242 4.215) // 208
    (-6.386689 13.572406 4.215) // 209
    (0.018633 0.077031 4.215) // 210
    (-6.386689 -13.572406 4.215) // 211
    (0.045177 -0.094579 0.0) // 212
    (-6.386689 -13.572406 0.0) // 213
    (-0.02021 0.183677 0.0) // 214
    (-7.018947 13.256484 0.0) // 215
    (-0.013575 0.184194 4.215) // 216
    (-7.018947 13.256484 4.215) // 217
    (-0.014025 0.075645 4.215) // 218
    (-7.018947 -13.256484 4.215) // 219
    (-0.02138 -0.098289 0.0) // 220
    (-7.018947 -13.256484 0.0) // 221
    (-0.087177 0.187251 0.0) // 222
    (-7.635621 12.91113 0.0) // 223
    (-0.046337 0.185587 4.215) // 224
    (-7.635621 12.91113 4.215) // 225
    (-0.046414 0.074409 4.215) // 226
    (-7.635621 -12.91113 4.215) // 227
    (-0.087381 -0.101542 0.0) // 228
    (-7.635621 -12.91113 0.0) // 229
    (-0.153867 0.189754 0.0) // 230
    (-8.235342 12.53711 0.0) // 231
    (-0.078907 0.186534 4.215) // 232
    (-8.235342 12.53711 4.215) // 233
    (-0.078218 0.073311 4.215) // 234
    (-8.235342 -12.53711 4.215) // 235
    (-0.152076 -0.104351 0.0) // 236
    (-8.235342 -12.53711 0.0) // 237
    (-0.21964 0.190952 0.0) // 238
    (-8.816779 12.135255 0.0) // 239
    (-0.111015 0.186928 4.215) // 240
    (-8.816779 12.135255 4.215) // 241
    (-0.109453 0.072292 4.215) // 242
    (-8.816779 -12.135255 4.215) // 243
    (-0.215583 -0.106824 0.0) // 244
    (-8.816779 -12.135255 0.0) // 245
    (-0.284095 0.190813 0.0) // 246
    (-9.37864 11.706456 0.0) // 247
    (-0.142478 0.186759 4.215) // 248
    (-9.37864 11.706456 4.215) // 249
    (-0.140053 0.071386 4.215) // 250
    (-9.37864 -11.706456 4.215) // 251
    (-0.277797 -0.108877 0.0) // 252
    (-9.37864 -11.706456 0.0) // 253
    (-0.346951 0.189325 0.0) // 254
    (-9.919678 11.251666 0.0) // 255
    (-0.173163 0.186027 4.215) // 256
    (-9.919678 11.251666 4.215) // 257
    (-0.169906 0.070628 4.215) // 258
    (-9.919678 -11.251666 4.215) // 259
    (-0.338493 -0.110433 0.0) // 260
    (-9.919678 -11.251666 0.0) // 261
    (-0.407945 0.186495 0.0) // 262
    (-10.438692 10.771894 0.0) // 263
    (-0.20294 0.184738 4.215) // 264
    (-10.438692 10.771894 4.215) // 265
    (-0.198901 0.070052 4.215) // 266
    (-10.438692 -10.771894 4.215) // 267
    (-0.397453 -0.111408 0.0) // 268
    (-10.438692 -10.771894 0.0) // 269
    (-0.466812 0.182344 0.0) // 270
    (-10.934529 10.268207 0.0) // 271
    (-0.231685 0.182905 4.215) // 272
    (-10.934529 10.268207 4.215) // 273
    (-0.226932 0.069694 4.215) // 274
    (-10.934529 -10.268207 4.215) // 275
    (-0.454466 -0.11173 0.0) // 276
    (-10.934529 -10.268207 0.0) // 277
    (-0.523299 0.176909 0.0) // 278
    (-11.406089 9.741721 0.0) // 279
    (-0.259277 0.180548 4.215) // 280
    (-11.406089 9.741721 4.215) // 281
    (-0.253898 0.069583 4.215) // 282
    (-11.406089 -9.741721 4.215) // 283
    (-0.509327 -0.111331 0.0) // 284
    (-11.406089 -9.741721 0.0) // 285
    (-0.577165 0.170244 0.0) // 286
    (-11.852325 9.193606 0.0) // 287
    (-0.285599 0.177694 4.215) // 288
    (-11.852325 9.193606 4.215) // 289
    (-0.279696 0.069749 4.215) // 290
    (-11.852325 -9.193606 4.215) // 291
    (-0.561834 -0.11015 0.0) // 292
    (-11.852325 -9.193606 0.0) // 293
    (-0.628186 0.162414 0.0) // 294
    (-12.272246 8.625079 0.0) // 295
    (-0.310542 0.174374 4.215) // 296
    (-12.272246 8.625079 4.215) // 297
    (-0.304232 0.070218 4.215) // 298
    (-12.272246 -8.625079 4.215) // 299
    (-0.611798 -0.10814 0.0) // 300
    (-12.272246 -8.625079 0.0) // 301
    (-0.676144 0.153503 0.0) // 302
    (-12.664919 8.037402 0.0) // 303
    (-0.334002 0.170628 4.215) // 304
    (-12.664919 8.037402 4.215) // 305
    (-0.327415 0.07101 4.215) // 306
    (-12.664919 -8.037402 4.215) // 307
    (-0.659034 -0.10526 0.0) // 308
    (-12.664919 -8.037402 0.0) // 309
    (-0.720845 0.143605 0.0) // 310
    (-13.029473 7.43188 0.0) // 311
    (-0.355884 0.166495 4.215) // 312
    (-13.029473 7.43188 4.215) // 313
    (-0.349156 0.072145 4.215) // 314
    (-13.029473 -7.43188 4.215) // 315
    (-0.703367 -0.101477 0.0) // 316
    (-13.029473 -7.43188 0.0) // 317
    (-0.762102 0.132819 0.0) // 318
    (-13.365098 6.809857 0.0) // 319
    (-0.376099 0.162024 4.215) // 320
    (-13.365098 6.809857 4.215) // 321
    (-0.369369 0.073636 4.215) // 322
    (-13.365098 -6.809857 4.215) // 323
    (-0.744621 -0.096776 0.0) // 324
    (-13.365098 -6.809857 0.0) // 325
    (-0.79975 0.121257 0.0) // 326
    (-13.671049 6.172715 0.0) // 327
    (-0.394565 0.157262 4.215) // 328
    (-13.671049 6.172715 4.215) // 329
    (-0.387979 0.075493 4.215) // 330
    (-13.671049 -6.172715 4.215) // 331
    (-0.782645 -0.091144 0.0) // 332
    (-13.671049 -6.172715 0.0) // 333
    (-0.833646 0.109036 0.0) // 334
    (-13.946647 5.521868 0.0) // 335
    (-0.411212 0.15226 4.215) // 336
    (-13.946647 5.521868 4.215) // 337
    (-0.404911 0.077724 4.215) // 338
    (-13.946647 -5.521868 4.215) // 339
    (-0.817278 -0.084578 0.0) // 340
    (-13.946647 -5.521868 0.0) // 341
    (-0.863659 0.096268 0.0) // 342
    (-14.19128 4.858761 0.0) // 343
    (-0.425974 0.147068 4.215) // 344
    (-14.19128 4.858761 4.215) // 345
    (-0.420095 0.080331 4.215) // 346
    (-14.19128 -4.858761 4.215) // 347
    (-0.848386 -0.077086 0.0) // 348
    (-14.19128 -4.858761 0.0) // 349
    (-0.889677 0.083067 0.0) // 350
    (-14.404405 4.184867 0.0) // 351
    (-0.438797 0.141734 4.215) // 352
    (-14.404405 4.184867 4.215) // 353
    (-0.433469 0.083316 4.215) // 354
    (-14.404405 -4.184867 4.215) // 355
    (-0.875835 -0.068679 0.0) // 356
    (-14.404405 -4.184867 0.0) // 357
    (-0.911608 0.069538 0.0) // 358
    (-14.585549 3.50168 0.0) // 359
    (-0.449634 0.136304 4.215) // 360
    (-14.585549 3.50168 4.215) // 361
    (-0.444975 0.086678 4.215) // 362
    (-14.585549 -3.50168 4.215) // 363
    (-0.899507 -0.05937 0.0) // 364
    (-14.585549 -3.50168 0.0) // 365
    (-0.929378 0.055782 0.0) // 366
    (-14.734309 2.81072 0.0) // 367
    (-0.458447 0.130821 4.215) // 368
    (-14.734309 2.81072 4.215) // 369
    (-0.454565 0.090413 4.215) // 370
    (-14.734309 -2.81072 4.215) // 371
    (-0.919295 -0.049182 0.0) // 372
    (-14.734309 -2.81072 0.0) // 373
    (-0.942933 0.041885 0.0) // 374
    (-14.850355 2.113518 0.0) // 375
    (-0.465207 0.125321 4.215) // 376
    (-14.850355 2.113518 4.215) // 377
    (-0.462194 0.094517 4.215) // 378
    (-14.850355 -2.113518 4.215) // 379
    (-0.935108 -0.03813 0.0) // 380
    (-14.850355 -2.113518 0.0) // 381
    (-0.952233 0.027921 0.0) // 382
    (-14.933429 1.411625 0.0) // 383
    (-0.469892 0.119837 4.215) // 384
    (-14.933429 1.411625 4.215) // 385
    (-0.467828 0.098987 4.215) // 386
    (-14.933429 -1.411625 4.215) // 387
    (-0.946869 -0.026239 0.0) // 388
    (-14.933429 -1.411625 0.0) // 389
    (-0.957256 0.013947 0.0) // 390
    (-14.983348 0.706597 0.0) // 391
    (-0.472492 0.114391 4.215) // 392
    (-14.983348 0.706597 4.215) // 393
    (-0.471437 0.103816 4.215) // 394
    (-14.983348 -0.706597 4.215) // 395
    (-0.954515 -0.013522 0.0) // 396
    (-14.983348 -0.706597 0.0) // 397
    (-0.958 0.0 0.0) // 398
    (-15.0 0.0 0.0) // 399
    (-0.473 0.109 4.215) // 400
    (-15.0 0.0 4.215) // 401
    (11.277597 9.890187 0.0) // 402
    (11.277597 9.890187 4.215) // 403
    (11.277597 -9.890187 4.215) // 404
    (11.277597 -9.890187 0.0) // 405
    (11.9003 9.131421 0.0) // 406
    (11.9003 9.131421 4.215) // 407
    (11.9003 -9.131421 4.215) // 408
    (11.9003 -9.131421 0.0) // 409
    (12.472044 8.333553 0.0) // 410
    (12.472044 8.333553 4.215) // 411
    (12.472044 -8.333553 4.215) // 412
    (12.472044 -8.333553 0.0) // 413
    (12.990381 7.5 0.0) // 414
    (12.990381 7.5 4.215) // 415
    (12.990381 -7.5 4.215) // 416
    (12.990381 -7.5 0.0) // 417
    (13.453091 6.63433 0.0) // 418
    (13.453091 6.63433 4.215) // 419
    (13.453091 -6.63433 4.215) // 420
    (13.453091 -6.63433 0.0) // 421
    (13.858193 5.740251 0.0) // 422
    (13.858193 5.740251 4.215) // 423
    (13.858193 -5.740251 4.215) // 424
    (13.858193 -5.740251 0.0) // 425
    (14.203952 4.821592 0.0) // 426
    (14.203952 4.821592 4.215) // 427
    (14.203952 -4.821592 4.215) // 428
    (14.203952 -4.821592 0.0) // 429
    (14.488887 3.882286 0.0) // 430
    (14.488887 3.882286 4.215) // 431
    (14.488887 -3.882286 4.215) // 432
    (14.488887 -3.882286 0.0) // 433
    (14.711779 2.926355 0.0) // 434
    (14.711779 2.926355 4.215) // 435
    (14.711779 -2.926355 4.215) // 436
    (14.711779 -2.926355 0.0) // 437
    (14.871673 1.957893 0.0) // 438
    (14.871673 1.957893 4.215) // 439
    (14.871673 -1.957893 4.215) // 440
    (14.871673 -1.957893 0.0) // 441
    (14.967884 0.981047 0.0) // 442
    (14.967884 0.981047 4.215) // 443
    (14.967884 -0.981047 4.215) // 444
    (14.967884 -0.981047 0.0) // 445
    (15.0 0.0 0.0) // 446
    (15.0 0.0 4.215) // 447
    (0.575968 0.109206 4.215035) // 448
    (10.606602 10.548498 5.782927) // 449
    (10.095188 11.03369 5.782927) // 450
    (0.575963 0.109204 4.215069) // 451
    (10.606602 10.374822 7.333675) // 452
    (10.095188 10.852026 7.333675) // 453
    (0.575962 0.109204 4.215069) // 454
    (0.575958 0.1092 4.215103) // 455
    (10.606602 10.087478 8.850255) // 456
    (10.095188 10.551465 8.850255) // 457
    (0.575957 0.1092 4.215103) // 458
    (0.575954 0.109195 4.215135) // 459
    (10.606602 9.689613 10.31605) // 460
    (10.095188 10.135299 10.31605) // 461
    (0.575951 0.109195 4.215135) // 462
    (0.575949 0.109188 4.215167) // 463
    (10.606602 9.185587 11.715) // 464
    (10.095188 9.60809 11.715) // 465
    (0.575946 0.109188 4.215167) // 466
    (0.575945 0.109181 4.215196) // 467
    (10.606602 8.580921 13.031779) // 468
    (10.095188 8.975612 13.031779) // 469
    (0.575942 0.109181 4.215196) // 470
    (0.575941 0.109172 4.215223) // 471
    (10.606602 7.882241 14.251959) // 472
    (10.095188 8.244795 14.251959) // 473
    (0.575937 0.109172 4.215223) // 474
    (0.575937 0.109161 4.215247) // 475
    (10.606602 7.097202 15.362172) // 476
    (10.095188 7.423647 15.362172) // 477
    (0.575933 0.109161 4.215247) // 478
    (0.575933 0.10915 4.215269) // 479
    (10.606602 6.234404 16.350255) // 480
    (10.095188 6.521164 16.350255) // 481
    (0.575929 0.10915 4.215269) // 482
    (0.57593 0.109138 4.215288) // 483
    (10.606602 5.303301 17.205381) // 484
    (10.095188 5.547233 17.205381) // 485
    (0.575926 0.109138 4.215288) // 486
    (0.575928 0.109125 4.215304) // 487
    (10.606602 4.314094 17.918182) // 488
    (10.095188 4.512526 17.918182) // 489
    (0.575923 0.109125 4.215304) // 490
    (0.575925 0.109112 4.215317) // 491
    (10.606602 3.27762 18.480848) // 492
    (10.095188 3.428379 18.480848) // 493
    (0.575921 0.109112 4.215317) // 494
    (0.575924 0.109098 4.215326) // 495
    (10.606602 2.205236 18.887214) // 496
    (10.095188 2.306669 18.887214) // 497
    (0.575919 0.109098 4.215326) // 498
    (0.575922 0.109084 4.215331) // 499
    (10.606602 1.108692 19.132828) // 500
    (10.095188 1.159688 19.132828) // 501
    (0.575918 0.109084 4.215331) // 502
    (0.575922 0.109069 4.215333) // 503
    (10.606602 0.0 19.215) // 504
    (10.095188 0.0 19.215) // 505
    (0.575917 0.109069 4.215333) // 506
    (0.575921 0.109055 4.215331) // 507
    (10.606602 -1.108692 19.132828) // 508
    (10.095188 -1.159688 19.132828) // 509
    (0.575916 0.109055 4.215331) // 510
    (0.575921 0.109041 4.215326) // 511
    (10.606602 -2.205236 18.887214) // 512
    (10.095188 -2.306669 18.887214) // 513
    (0.575917 0.109041 4.215326) // 514
    (0.575922 0.109027 4.215317) // 515
    (10.606602 -3.27762 18.480848) // 516
    (10.095188 -3.428379 18.480848) // 517
    (0.575917 0.109027 4.215317) // 518
    (0.575923 0.109013 4.215304) // 519
    (10.606602 -4.314094 17.918182) // 520
    (10.095188 -4.512526 17.918182) // 521
    (0.575919 0.109013 4.215304) // 522
    (0.575925 0.109001 4.215288) // 523
    (10.606602 -5.303301 17.205381) // 524
    (10.095188 -5.547233 17.205381) // 525
    (0.57592 0.109001 4.215288) // 526
    (0.575926 0.108988 4.215269) // 527
    (10.606602 -6.234404 16.350255) // 528
    (10.095188 -6.521164 16.350255) // 529
    (0.575922 0.108988 4.215269) // 530
    (0.575929 0.108977 4.215247) // 531
    (10.606602 -7.097202 15.362172) // 532
    (10.095188 -7.423647 15.362172) // 533
    (0.575925 0.108977 4.215247) // 534
    (0.575931 0.108967 4.215223) // 535
    (10.606602 -7.882241 14.251959) // 536
    (10.095188 -8.244795 14.251959) // 537
    (0.575928 0.108967 4.215223) // 538
    (0.575934 0.108958 4.215196) // 539
    (10.606602 -8.580921 13.031779) // 540
    (10.095188 -8.975612 13.031779) // 541
    (0.575931 0.108958 4.215196) // 542
    (0.575938 0.10895 4.215167) // 543
    (10.606602 -9.185587 11.715) // 544
    (10.095188 -9.60809 11.715) // 545
    (0.575935 0.10895 4.215167) // 546
    (0.575941 0.108944 4.215135) // 547
    (10.606602 -9.689613 10.31605) // 548
    (10.095188 -10.135299 10.31605) // 549
    (0.575938 0.108944 4.215135) // 550
    (0.575945 0.108938 4.215103) // 551
    (10.606602 -10.087478 8.850255) // 552
    (10.095188 -10.551465 8.850255) // 553
    (0.575942 0.108938 4.215103) // 554
    (0.575948 0.108935 4.215069) // 555
    (10.606602 -10.374822 7.333675) // 556
    (10.095188 -10.852026 7.333675) // 557
    (0.575947 0.108935 4.215069) // 558
    (0.575952 0.108933 4.215035) // 559
    (10.606602 -10.548498 5.782927) // 560
    (10.095188 -11.03369 5.782927) // 561
    (0.575951 0.108933 4.215035) // 562
    (0.575956 0.108932 4.215) // 563
    (0.572877 0.109821 4.215139) // 564
    (9.56136 11.494384 5.782927) // 565
    (0.572875 0.109821 4.215139) // 566
    (0.572857 0.109812 4.215276) // 567
    (9.56136 11.305135 7.333675) // 568
    (0.572853 0.109812 4.215276) // 569
    (0.572838 0.109797 4.215411) // 570
    (9.56136 10.992025 8.850255) // 571
    (0.572831 0.109797 4.215411) // 572
    (0.572819 0.109777 4.215541) // 573
    (9.56136 10.558483 10.31605) // 574
    (0.57281 0.109777 4.215541) // 575
    (0.572801 0.109751 4.215665) // 576
    (9.56136 10.009261 11.715) // 577
    (0.57279 0.109751 4.215665) // 578
    (0.572784 0.109719 4.215782) // 579
    (9.56136 9.350375 13.031779) // 580
    (0.572772 0.109719 4.215782) // 581
    (0.572767 0.109683 4.21589) // 582
    (9.56136 8.589044 14.251959) // 583
    (0.572754 0.109683 4.21589) // 584
    (0.572752 0.109643 4.215988) // 585
    (9.56136 7.73361 15.362172) // 586
    (0.572737 0.109643 4.215988) // 587
    (0.572739 0.109598 4.216076) // 588
    (9.56136 6.793445 16.350255) // 589
    (0.572723 0.109598 4.216076) // 590
    (0.572726 0.10955 4.216151) // 591
    (9.56136 5.778849 17.205381) // 592
    (0.57271 0.10955 4.216151) // 593
    (0.572716 0.109498 4.216215) // 594
    (9.56136 4.70094 17.918182) // 595
    (0.572698 0.109498 4.216215) // 596
    (0.572707 0.109445 4.216265) // 597
    (9.56136 3.571525 18.480848) // 598
    (0.572689 0.109445 4.216265) // 599
    (0.5727 0.109389 4.216301) // 600
    (9.56136 2.402981 18.887214) // 601
    (0.572681 0.109389 4.216301) // 602
    (0.572695 0.109333 4.216322) // 603
    (9.56136 1.208108 19.132828) // 604
    (0.572676 0.109333 4.216322) // 605
    (0.572692 0.109275 4.21633) // 606
    (9.56136 0.0 19.215) // 607
    (0.572672 0.109275 4.21633) // 608
    (0.57269 0.109218 4.216322) // 609
    (9.56136 -1.208108 19.132828) // 610
    (0.572671 0.109218 4.216322) // 611
    (0.572691 0.109161 4.216301) // 612
    (9.56136 -2.402981 18.887214) // 613
    (0.572672 0.109161 4.216301) // 614
    (0.572693 0.109105 4.216265) // 615
    (9.56136 -3.571525 18.480848) // 616
    (0.572674 0.109105 4.216265) // 617
    (0.572697 0.109052 4.216215) // 618
    (9.56136 -4.70094 17.918182) // 619
    (0.572679 0.109052 4.216215) // 620
    (0.572703 0.109001 4.216151) // 621
    (9.56136 -5.778849 17.205381) // 622
    (0.572685 0.109001 4.216151) // 623
    (0.572711 0.108952 4.216076) // 624
    (9.56136 -6.793445 16.350255) // 625
    (0.572694 0.108952 4.216076) // 626
    (0.57272 0.108908 4.215988) // 627
    (9.56136 -7.73361 15.362172) // 628
    (0.572704 0.108908 4.215988) // 629
    (0.57273 0.108867 4.21589) // 630
    (9.56136 -8.589044 14.251959) // 631
    (0.572715 0.108867 4.21589) // 632
    (0.572742 0.108831 4.215782) // 633
    (9.56136 -9.350375 13.031779) // 634
    (0.572728 0.108831 4.215782) // 635
    (0.572754 0.1088 4.215665) // 636
    (9.56136 -10.009261 11.715) // 637
    (0.572742 0.1088 4.215665) // 638
    (0.572768 0.108773 4.215541) // 639
    (9.56136 -10.558483 10.31605) // 640
    (0.572757 0.108773 4.215541) // 641
    (0.572782 0.108753 4.215411) // 642
    (9.56136 -10.992025 8.850255) // 643
    (0.572773 0.108753 4.215411) // 644
    (0.572797 0.108738 4.215276) // 645
    (9.56136 -11.305135 7.333675) // 646
    (0.57279 0.108738 4.215276) // 647
    (0.572812 0.108729 4.215139) // 648
    (9.56136 -11.494384 5.782927) // 649
    (0.572807 0.108729 4.215139) // 650
    (0.572827 0.108726 4.215) // 651
    (0.567738 0.110838 4.215311) // 652
    (9.006303 11.929559 5.782927) // 653
    (0.567733 0.110838 4.215311) // 654
    (0.567695 0.110818 4.215619) // 655
    (9.006303 11.733144 7.333675) // 656
    (0.567684 0.110818 4.215619) // 657
    (0.567652 0.110785 4.21592) // 658
    (9.006303 11.40818 8.850255) // 659
    (0.567637 0.110785 4.21592) // 660
    (0.56761 0.110739 4.216211) // 661
    (9.006303 10.958224 10.31605) // 662
    (0.567591 0.110739 4.216211) // 663
    (0.56757 0.11068 4.216488) // 664
    (9.006303 10.388208 11.715) // 665
    (0.567546 0.11068 4.216488) // 666
    (0.567531 0.11061 4.21675) // 667
    (9.006303 9.704377 13.031779) // 668
    (0.567504 0.11061 4.21675) // 669
    (0.567495 0.110529 4.216992) // 670
    (9.006303 8.914223 14.251959) // 671
    (0.567465 0.110529 4.216992) // 672
    (0.567462 0.110438 4.217212) // 673
    (9.006303 8.026402 15.362172) // 674
    (0.567429 0.110438 4.217212) // 675
    (0.567431 0.110338 4.217408) // 676
    (9.006303 7.050643 16.350255) // 677
    (0.567396 0.110338 4.217408) // 678
    (0.567404 0.11023 4.217578) // 679
    (9.006303 5.997635 17.205381) // 680
    (0.567367 0.11023 4.217578) // 681
    (0.567381 0.110115 4.21772) // 682
    (9.006303 4.878916 17.918182) // 683
    (0.567341 0.110115 4.21772) // 684
    (0.567361 0.109995 4.217831) // 685
    (9.006303 3.706742 18.480848) // 686
    (0.56732 0.109995 4.217831) // 687
    (0.567346 0.109871 4.217912) // 688
    (9.006303 2.493957 18.887214) // 689
    (0.567304 0.109871 4.217912) // 690
    (0.567334 0.109744 4.217961) // 691
    (9.006303 1.253847 19.132828) // 692
    (0.567291 0.109744 4.217961) // 693
    (0.567327 0.109615 4.217977) // 694
    (9.006303 0.0 19.215) // 695
    (0.567284 0.109615 4.217977) // 696
    (0.567324 0.109487 4.217961) // 697
    (9.006303 -1.253847 19.132828) // 698
    (0.567281 0.109487 4.217961) // 699
    (0.567325 0.10936 4.217912) // 700
    (9.006303 -2.493957 18.887214) // 701
    (0.567282 0.10936 4.217912) // 702
    (0.56733 0.109235 4.217831) // 703
    (9.006303 -3.706742 18.480848) // 704
    (0.567288 0.109235 4.217831) // 705
    (0.567339 0.109115 4.21772) // 706
    (9.006303 -4.878916 17.918182) // 707
    (0.567298 0.109115 4.21772) // 708
    (0.567352 0.109001 4.217578) // 709
    (9.006303 -5.997635 17.205381) // 710
    (0.567313 0.109001 4.217578) // 711
    (0.567369 0.108893 4.217408) // 712
    (9.006303 -7.050643 16.350255) // 713
    (0.567331 0.108893 4.217408) // 714
    (0.567389 0.108793 4.217212) // 715
    (9.006303 -8.026402 15.362172) // 716
    (0.567353 0.108793 4.217212) // 717
    (0.567412 0.108702 4.216992) // 718
    (9.006303 -8.914223 14.251959) // 719
    (0.567379 0.108702 4.216992) // 720
    (0.567438 0.108621 4.21675) // 721
    (9.006303 -9.704377 13.031779) // 722
    (0.567407 0.108621 4.21675) // 723
    (0.567466 0.10855 4.216488) // 724
    (9.006303 -10.388208 11.715) // 725
    (0.567439 0.10855 4.216488) // 726
    (0.567495 0.108492 4.216211) // 727
    (9.006303 -10.958224 10.31605) // 728
    (0.567472 0.108492 4.216211) // 729
    (0.567527 0.108446 4.21592) // 730
    (9.006303 -11.40818 8.850255) // 731
    (0.567508 0.108446 4.21592) // 732
    (0.567559 0.108413 4.215619) // 733
    (9.006303 -11.733144 7.333675) // 734
    (0.567544 0.108413 4.215619) // 735
    (0.567593 0.108392 4.215311) // 736
    (9.006303 -11.929559 5.782927) // 737
    (0.567582 0.108392 4.215311) // 738
    (0.567626 0.108386 4.215) // 739
    (0.560571 0.112244 4.215549) // 740
    (8.431251 12.338246 5.782927) // 741
    (0.560562 0.112244 4.215549) // 742
    (0.560495 0.112209 4.216093) // 743
    (8.431251 12.135103 7.333675) // 744
    (0.560477 0.112209 4.216093) // 745
    (0.560421 0.11215 4.216624) // 746
    (8.431251 11.799006 8.850255) // 747
    (0.560394 0.11215 4.216624) // 748
    (0.560348 0.112068 4.217138) // 749
    (8.431251 11.333636 10.31605) // 750
    (0.560314 0.112068 4.217138) // 751
    (0.560277 0.111965 4.217628) // 752
    (8.431251 10.744092 11.715) // 753
    (0.560236 0.111965 4.217628) // 754
    (0.56021 0.111841 4.218089) // 755
    (8.431251 10.036834 13.031779) // 756
    (0.560163 0.111841 4.218089) // 757
    (0.560147 0.111698 4.218517) // 758
    (8.431251 9.21961 14.251959) // 759
    (0.560095 0.111698 4.218517) // 760
    (0.560089 0.111538 4.218906) // 761
    (8.431251 8.301374 15.362172) // 762
    (0.560031 0.111538 4.218906) // 763
    (0.560036 0.111361 4.219252) // 764
    (8.431251 7.292186 16.350255) // 765
    (0.559974 0.111361 4.219252) // 766
    (0.559989 0.111171 4.219552) // 767
    (8.431251 6.203104 17.205381) // 768
    (0.559923 0.111171 4.219552) // 769
    (0.559948 0.110968 4.219802) // 770
    (8.431251 5.04606 17.918182) // 771
    (0.559879 0.110968 4.219802) // 772
    (0.559914 0.110756 4.219999) // 773
    (8.431251 3.833729 18.480848) // 774
    (0.559842 0.110756 4.219999) // 775
    (0.559887 0.110537 4.220141) // 776
    (8.431251 2.579396 18.887214) // 777
    (0.559813 0.110537 4.220141) // 778
    (0.559867 0.110312 4.220227) // 779