FoamFile
{
    version     2.0;
format      ascii;
class       dictionary;
object      blockMeshDict;
}
convertToMeters 1;

vertices
(
    (1.182908 0.000499 0.0) // 0
    (1.185 0.0 0.0) // 1
    (2.12132 2.12132 0.0) // 2
    (2.019038 2.218893 0.0) // 3
    (0.844742 0.061369 2.360136) // 4
    (0.8462 0.06104 2.3604) // 5
    (2.12132 2.12132 2.4604) // 6
    (2.019038 2.218893 2.460136) // 7
    (0.844712 0.0609 2.360131) // 8
    (2.12132 -2.12132 2.4604) // 9
    (2.019038 -2.218893 2.460131) // 10
    (1.182861 -0.000216 0.0) // 11
    (2.12132 -2.12132 0.0) // 12
    (2.019038 -2.218893 0.0) // 13
    (1.176644 0.001987 0.0) // 14
    (1.912272 2.31154 0.0) // 15
    (0.840376 0.062349 2.359346) // 16
    (1.912272 2.31154 2.459346) // 17
    (0.840255 0.060479 2.359324) // 18
    (1.912272 -2.31154 2.459324) // 19
    (1.176456 -0.000864 0.0) // 20
    (1.912272 -2.31154 0.0) // 21
    (1.166229 0.004449 0.0) // 22
    (1.801261 2.399054 0.0) // 23
    (0.833114 0.063971 2.358031) // 24
    (1.801261 2.399054 2.458031) // 25
    (0.832846 0.05978 2.357983) // 26
    (1.801261 -2.399054 2.457983) // 27
    (1.165812 -0.001937 0.0) // 28
    (1.801261 -2.399054 0.0) // 29
    (1.151702 0.007854 0.0) // 30
    (1.68625 2.481242 0.0) // 31
    (0.822978 0.066215 2.356198) // 32
    (1.68625 2.481242 2.456198) // 33
    (0.822509 0.058812 2.356113) // 34
    (1.68625 -2.481242 2.456113) // 35
    (1.150971 -0.003425 0.0) // 36
    (1.68625 -2.481242 0.0) // 37
    (1.133116 0.012162 0.0) // 38
    (1.567496 2.55792 0.0) // 39
    (0.810001 0.069056 2.353853) // 40
    (1.567496 2.55792 2.453853) // 41
    (0.809285 0.057581 2.353723) // 42
    (1.567496 -2.55792 2.453723) // 43
    (1.131999 -0.00531 0.0) // 44
    (1.567496 -2.55792 0.0) // 45
    (1.110537 0.01732 0.0) // 46
    (1.445261 2.62892 0.0) // 47
    (0.794223 0.07246 2.351004) // 48
    (1.445261 2.62892 2.451004) // 49
    (0.793221 0.056096 2.350823) // 50
    (1.445261 -2.62892 2.450823) // 51
    (1.108975 -0.007582 0.0) // 52
    (1.445261 -2.62892 0.0) // 53
    (1.08405 0.023273 0.0) // 54
    (1.319818 2.694083 0.0) // 55
    (0.775695 0.076393 2.347662) // 56
    (1.319818 2.694083 2.447662) // 57
    (0.774376 0.05437 2.347424) // 58
    (1.319818 -2.694083 2.447424) // 59
    (1.081995 -0.010216 0.0) // 60
    (1.319818 -2.694083 0.0) // 61
    (1.053752 0.029951 0.0) // 62
    (1.191444 2.753264 0.0) // 63
    (0.754477 0.080808 2.34384) // 64
    (1.191444 2.753264 2.44384) // 65
    (0.752818 0.052414 2.34354) // 66
    (1.191444 -2.753264 2.44354) // 67
    (1.051172 -0.01319 0.0) // 68
    (1.191444 -2.753264 0.0) // 69
    (1.019758 0.037282 0.0) // 70
    (1.060425 2.806332 0.0) // 71
    (0.730639 0.085662 2.339551) // 72
    (1.060425 2.806332 2.439551) // 73
    (0.728628 0.05024 2.339189) // 74
    (1.060425 -2.806332 2.439189) // 75
    (1.016637 -0.016484 0.0) // 76
    (1.060425 -2.806332 0.0) // 77
    (0.982191 0.045185 0.0) // 78
    (0.927051 2.85317 0.0) // 79
    (0.704255 0.0909 2.334812) // 80
    (0.927051 2.85317 2.434812) // 81
    (0.701894 0.047863 2.334387) // 82
    (0.927051 -2.85317 2.434387) // 83
    (0.978533 -0.020071 0.0) // 84
    (0.927051 -2.85317 0.0) // 85
    (0.941195 0.053581 0.0) // 86
    (0.791619 2.893672 0.0) // 87
    (0.675417 0.096472 2.329641) // 88
    (0.791619 2.893672 2.429641) // 89
    (0.672713 0.045296 2.329155) // 90
    (0.791619 -2.893672 2.429155) // 91
    (0.937016 -0.023929 0.0) // 92
    (0.791619 -2.893672 0.0) // 93
    (0.896923 0.062381 0.0) // 94
    (0.65443 2.92775 0.0) // 95
    (0.644218 0.102321 2.324057) // 96
    (0.65443 2.92775 2.424057) // 97
    (0.641193 0.042551 2.323515) // 98
    (0.65443 -2.92775 2.423515) // 99
    (0.892258 -0.028033 0.0) // 100
    (0.65443 -2.92775 0.0) // 101
    (0.849543 0.071501 0.0) // 102
    (0.515787 2.955328 0.0) // 103
    (0.610765 0.108392 2.318081) // 104
    (0.515787 2.955328 2.418081) // 105
    (0.607449 0.039645 2.317488) // 106
    (0.515787 -2.955328 2.417488) // 107
    (0.844441 -0.032357 0.0) // 108
    (0.515787 -2.955328 0.0) // 109
    (0.799239 0.080851 0.0) // 110
    (0.376 2.976344 0.0) // 111
    (0.575175 0.114627 2.311737) // 112
    (0.376 2.976344 2.411737) // 113
    (0.571606 0.03659 2.311101) // 114
    (0.376 -2.976344 2.411101) // 115
    (0.793761 -0.036877 0.0) // 116
    (0.376 -2.976344 0.0) // 117
    (0.746199 0.09034 0.0) // 118
    (0.235377 2.990752 0.0) // 119
    (0.537569 0.120965 2.305048) // 120
    (0.235377 2.990752 2.405048) // 121
    (0.533797 0.033403 2.304378) // 122
    (0.235377 -2.990752 2.404378) // 123
    (0.740426 -0.041563 0.0) // 124
    (0.235377 -2.990752 0.0) // 125
    (0.690629 0.099885 0.0) // 126
    (0.094232 2.99852 0.0) // 127
    (0.49808 0.12735 2.298041) // 128
    (0.094232 2.99852 2.398041) // 129
    (0.494162 0.030097 2.297346) // 130
    (0.094232 -2.99852 2.397346) // 131
    (0.684648 -0.046396 0.0) // 132
    (0.094232 -2.99852 0.0) // 133
    (0.632742 0.109394 0.0) // 134
    (-0.047122 2.99963 0.0) // 135
    (0.456677 0.133747 2.29296) // 136
    (-0.047122 2.99963 2.39296) // 137
    (0.452626 0.026791 2.29296) // 138
    (-0.047122 -2.99963 2.39296) // 139
    (0.626654 -0.05134 0.0) // 140
    (-0.047122 -2.99963 0.0) // 141
    (0.572766 0.118778 0.0) // 142
    (-0.188372 2.99408 0.0) // 143
    (0.413342 0.140116 2.29296) // 144
    (-0.188372 2.99408 2.39296) // 145
    (0.40929 0.023569 2.29296) // 146
    (-0.188372 -2.99408 2.39296) // 147
    (0.566678 -0.056369 0.0) // 148
    (-0.188372 -2.99408 0.0) // 149
    (0.510934 0.127952 0.0) // 150
    (-0.329203 2.981883 0.0) // 151
    (0.368668 0.146338 2.29296) // 152
    (-0.329203 2.981883 2.39296) // 153
    (0.364691 0.020308 2.29296) // 154
    (-0.329203 -2.981883 2.39296) // 155
    (0.504958 -0.061446 0.0) // 156
    (-0.329203 -2.981883 0.0) // 157
    (0.447487 0.136831 0.0) // 158
    (-0.469303 2.963065 0.0) // 159
    (0.322831 0.152354 2.29296) // 160
    (-0.469303 2.963065 2.39296) // 161
    (0.319005 0.017031 2.29296) // 162
    (-0.469303 -2.963065 2.39296) // 163
    (0.441737 -0.066534 0.0) // 164
    (-0.469303 -2.963065 0.0) // 165
    (0.382676 0.145325 0.0) // 166
    (-0.608362 2.937668 0.0) // 167
    (0.276012 0.158105 2.29296) // 168
    (-0.608362 2.937668 2.39296) // 169
    (0.272413 0.013765 2.29296) // 170
    (-0.608362 -2.937668 2.39296) // 171
    (0.377267 -0.071589 0.0) // 172
    (-0.608362 -2.937668 0.0) // 173
    (0.316753 0.153355 0.0) // 174
    (-0.74607 2.905749 0.0) // 175
    (0.228394 0.163535 2.29296) // 176
    (-0.74607 2.905749 2.39296) // 177
    (0.225101 0.010539 2.29296) // 178
    (-0.74607 -2.905749 2.39296) // 179
    (0.311805 -0.076567 0.0) // 180
    (-0.74607 -2.905749 0.0) // 181
    (0.249983 0.160834 0.0) // 182
    (-0.882121 2.867379 0.0) // 183
    (0.180166 0.168588 2.29296) // 184
    (-0.882121 2.867379 2.39296) // 185
    (0.177253 0.007388 2.29296) // 186
    (-0.882121 -2.867379 2.39296) // 187
    (0.245605 -0.081415 0.0) // 188
    (-0.882121 -2.867379 0.0) // 189
    (0.182633 0.167683 0.0) // 190
    (-1.016214 2.822642 0.0) // 191
    (0.131521 0.173207 2.29296) // 192
    (-1.016214 2.822642 2.39296) // 193
    (0.129056 0.004349 2.29296) // 194
    (-1.016214 -2.822642 2.39296) // 195
    (0.178928 -0.086076 0.0) // 196
    (-1.016214 -2.822642 0.0) // 197
    (0.114968 0.173823 0.0) // 198
    (-1.14805 2.771639 0.0) // 199
    (0.082653 0.177343 2.29296) // 200
    (-1.14805 2.771639 2.39296) // 201
    (0.080699 0.001464 2.29296) // 202
    (-1.14805 -2.771639 2.39296) // 203
    (0.112032 -0.090486 0.0) // 204
    (-1.14805 -2.771639 0.0) // 205
    (0.047264 0.179178 0.0) // 206
    (-1.277338 2.714481 0.0) // 207
    (0.033758 0.180942 2.29296) // 208
    (-1.277338 2.714481 2.39296) // 209
    (0.032369 -0.001223 2.29296) // 210
    (-1.277338 -2.714481 2.39296) // 211
    (0.045177 -0.094579 0.0) // 212
    (-1.277338 -2.714481 0.0) // 213
    (-0.02021 0.183677 0.0) // 214
    (-1.403789 2.651297 0.0) // 215
    (-0.014968 0.183958 2.29296) // 216
    (-1.403789 2.651297 2.39296) // 217
    (-0.015747 -0.003669 2.29296) // 218
    (-1.403789 -2.651297 2.39296) // 219
    (-0.02138 -0.098289 0.0) // 220
    (-1.403789 -2.651297 0.0) // 221
    (-0.087177 0.187251 0.0) // 222
    (-1.527124 2.582226 0.0) // 223
    (-0.063328 0.186346 2.29296) // 224
    (-1.527124 2.582226 2.39296) // 225
    (-0.063463 -0.005825 2.29296) // 226
    (-1.527124 -2.582226 2.39296) // 227
    (-0.087381 -0.101542 0.0) // 228
    (-1.527124 -2.582226 0.0) // 229
    (-0.153867 0.189754 0.0) // 230
    (-1.647068 2.507422 0.0) // 231
    (-0.111457 0.188002 2.29296) // 232
    (-1.647068 2.507422 2.39296) // 233
    (-0.110265 -0.007703 2.29296) // 234
    (-1.647068 -2.507422 2.39296) // 235
    (-0.152076 -0.104351 0.0) // 236
    (-1.647068 -2.507422 0.0) // 237
    (-0.21964 0.190952 0.0) // 238
    (-1.763356 2.427051 0.0) // 239
    (-0.158916 0.188763 2.29296) // 240
    (-1.763356 2.427051 2.39296) // 241
    (-0.156217 -0.009385 2.29296) // 242
    (-1.763356 -2.427051 2.39296) // 243
    (-0.215583 -0.106824 0.0) // 244
    (-1.763356 -2.427051 0.0) // 245
    (-0.284095 0.190813 0.0) // 246
    (-1.875728 2.341291 0.0) // 247
    (-0.205423 0.188607 2.29296) // 248
    (-1.875728 2.341291 2.39296) // 249
    (-0.201232 -0.010814 2.29296) // 250
    (-1.875728 -2.341291 2.39296) // 251
    (-0.277797 -0.108877 0.0) // 252
    (-1.875728 -2.341291 0.0) // 253
    (-0.346951 0.189325 0.0) // 254
    (-1.983936 2.250333 0.0) // 255
    (-0.250779 0.187531 2.29296) // 256
    (-1.983936 2.250333 2.39296) // 257
    (-0.24515 -0.011936 2.29296) // 258
    (-1.983936 -2.250333 2.39296) // 259
    (-0.338493 -0.110433 0.0) // 260
    (-1.983936 -2.250333 0.0) // 261
    (-0.407945 0.186495 0.0) // 262
    (-2.087738 2.154379 0.0) // 263
    (-0.29479 0.185539 2.29296) // 264
    (-2.087738 2.154379 2.39296) // 265
    (-0.287809 -0.012694 2.29296) // 266
    (-2.087738 -2.154379 2.39296) // 267
    (-0.397453 -0.111408 0.0) // 268
    (-2.087738 -2.154379 0.0) // 269
    (-0.466812 0.182344 0.0) // 270
    (-2.186906 2.053641 0.0) // 271
    (-0.337271 0.182649 2.29296) // 272
    (-2.186906 2.053641 2.39296) // 273
    (-0.329056 -0.013035 2.29296) // 274
    (-2.186906 -2.053641 2.39296) // 275
    (-0.454466 -0.11173 0.0) // 276
    (-2.186906 -2.053641 0.0) // 277
    (-0.523299 0.176909 0.0) // 278
    (-2.281218 1.948344 0.0) // 279
    (-0.378039 0.178889 2.29296) // 280
    (-2.281218 1.948344 2.39296) // 281
    (-0.368741 -0.012914 2.29296) // 282
    (-2.281218 -1.948344 2.39296) // 283
    (-0.509327 -0.111331 0.0) // 284
    (-2.281218 -1.948344 0.0) // 285
    (-0.577165 0.170244 0.0) // 286
    (-2.370465 1.838721 0.0) // 287
    (-0.416921 0.174297 2.29296) // 288
    (-2.370465 1.838721 2.39296) // 289
    (-0.406719 -0.012285 2.29296) // 290
    (-2.370465 -1.838721 2.39296) // 291
    (-0.561834 -0.11015 0.0) // 292
    (-2.370465 -1.838721 0.0) // 293
    (-0.628186 0.162414 0.0) // 294
    (-2.454449 1.725016 0.0) // 295
    (-0.453756 0.16892 2.29296) // 296
    (-2.454449 1.725016 2.39296) // 297
    (-0.442851 -0.011113 2.29296) // 298
    (-2.454449 -1.725016 2.39296) // 299
    (-0.611798 -0.10814 0.0) // 300
    (-2.454449 -1.725016 0.0) // 301
    (-0.676144 0.153503 0.0) // 302
    (-2.532984 1.60748 0.0) // 303
    (-0.488387 0.162819 2.29296) // 304
    (-2.532984 1.60748 2.39296) // 305
    (-0.477002 -0.009369 2.29296) // 306
    (-2.532984 -1.60748 2.39296) // 307
    (-0.659034 -0.10526 0.0) // 308
    (-2.532984 -1.60748 0.0) // 309
    (-0.720845 0.143605 0.0) // 310
    (-2.605895 1.486376 0.0) // 311
    (-0.520674 0.156057 2.29296) // 312
    (-2.605895 1.486376 2.39296) // 313
    (-0.509044 -0.007027 2.29296) // 314
    (-2.605895 -1.486376 2.39296) // 315
    (-0.703367 -0.101477 0.0) // 316
    (-2.605895 -1.486376 0.0) // 317
    (-0.762102 0.132819 0.0) // 318
    (-2.67302 1.361971 0.0) // 319
    (-0.550484 0.148706 2.29296) // 320
    (-2.67302 1.361971 2.39296) // 321
    (-0.538852 -0.004072 2.29296) // 322
    (-2.67302 -1.361971 2.39296) // 323
    (-0.744621 -0.096776 0.0) // 324
    (-2.67302 -1.361971 0.0) // 325
    (-0.79975 0.121257 0.0) // 326
    (-2.73421 1.234543 0.0) // 327
    (-0.577697 0.140844 2.29296) // 328
    (-2.73421 1.234543 2.39296) // 329
    (-0.566315 -0.000493 2.29296) // 330
    (-2.73421 -1.234543 2.39296) // 331
    (-0.782645 -0.091144 0.0) // 332
    (-2.73421 -1.234543 0.0) // 333
    (-0.833646 0.109036 0.0) // 334
    (-2.789329 1.104374 0.0) // 335
    (-0.60221 0.13255 2.29296) // 336
    (-2.789329 1.104374 2.39296) // 337
    (-0.591318 0.003714 2.29296) // 338
    (-2.789329 -1.104374 2.39296) // 339
    (-0.817278 -0.084578 0.0) // 340
    (-2.789329 -1.104374 0.0) // 341
    (-0.863659 0.096268 0.0) // 342
    (-2.838256 0.971752 0.0) // 343
    (-0.623926 0.123903 2.29296) // 344
    (-2.838256 0.971752 2.39296) // 345
    (-0.613763 0.008549 2.29296) // 346
    (-2.838256 -0.971752 2.39296) // 347
    (-0.848386 -0.077086 0.0) // 348
    (-2.838256 -0.971752 0.0) // 349
    (-0.889677 0.083067 0.0) // 350
    (-2.880881 0.836973 0.0) // 351
    (-0.642766 0.114982 2.29296) // 352
    (-2.880881 0.836973 2.39296) // 353
    (-0.633556 0.014006 2.29296) // 354
    (-2.880881 -0.836973 2.39296) // 355
    (-0.875835 -0.068679 0.0) // 356
    (-2.880881 -0.836973 0.0) // 357
    (-0.911608 0.069538 0.0) // 358
    (-2.91711 0.700336 0.0) // 359
    (-0.658662 0.105859 2.29296) // 360
    (-2.91711 0.700336 2.39296) // 361
    (-0.65061 0.02008 2.29296) // 362
    (-2.91711 -0.700336 2.39296) // 363
    (-0.899507 -0.05937 0.0) // 364
    (-2.91711 -0.700336 0.0) // 365
    (-0.929378 0.055782 0.0) // 366
    (-2.946862 0.562144 0.0) // 367
    (-0.67156 0.096603 2.29296) // 368
    (-2.946862 0.562144 2.39296) // 369
    (-0.66485 0.026758 2.29296) // 370
    (-2.946862 -0.562144 2.39296) // 371
    (-0.919295 -0.049182 0.0) // 372
    (-2.946862 -0.562144 0.0) // 373
    (-0.942933 0.041885 0.0) // 374
    (-2.970071 0.422704 0.0) // 375
    (-0.681418 0.087274 2.29296) // 376
    (-2.970071 0.422704 2.39296) // 377
    (-0.676211 0.03403 2.29296) // 378
    (-2.970071 -0.422704 2.39296) // 379
    (-0.935108 -0.03813 0.0) // 380
    (-2.970071 -0.422704 0.0) // 381
    (-0.952233 0.027921 0.0) // 382
    (-2.986686 0.282325 0.0) // 383
    (-0.688208 0.077923 2.29296) // 384
    (-2.986686 0.282325 2.39296) // 385
    (-0.684639 0.041884 2.29296) // 386
    (-2.986686 -0.282325 2.39296) // 387
    (-0.946869 -0.026239 0.0) // 388
    (-2.986686 -0.282325 0.0) // 389
    (-0.957256 0.013947 0.0) // 390
    (-2.99667 0.141319 0.0) // 391
    (-0.691912 0.068588 2.29296) // 392
    (-2.99667 0.141319 2.39296) // 393
    (-0.690089 0.05031 2.29296) // 394
    (-2.99667 -0.141319 2.39296) // 395
    (-0.954515 -0.013522 0.0) // 396
    (-2.99667 -0.141319 0.0) // 397
    (-0.958 0.0 0.0) // 398
    (-3.0 0.0 0.0) // 399
    (-0.692528 0.059296 2.29296) // 400
    (-3.0 0.0 2.39296) // 401
    (2.255519 1.978037 0.0) // 402
    (2.255519 1.978037 2.4604) // 403
    (2.255519 -1.978037 2.4604) // 404
    (2.255519 -1.978037 0.0) // 405
    (2.38006 1.826284 0.0) // 406
    (2.38006 1.826284 2.4604) // 407
    (2.38006 -1.826284 2.4604) // 408
    (2.38006 -1.826284 0.0) // 409
    (2.494409 1.666711 0.0) // 410
    (2.494409 1.666711 2.4604) // 411
    (2.494409 -1.666711 2.4604) // 412
    (2.494409 -1.666711 0.0) // 413
    (2.598076 1.5 0.0) // 414
    (2.598076 1.5 2.4604) // 415
    (2.598076 -1.5 2.4604) // 416
    (2.598076 -1.5 0.0) // 417
    (2.690618 1.326866 0.0) // 418
    (2.690618 1.326866 2.4604) // 419
    (2.690618 -1.326866 2.4604) // 420
    (2.690618 -1.326866 0.0) // 421
    (2.771639 1.14805 0.0) // 422
    (2.771639 1.14805 2.4604) // 423
    (2.771639 -1.14805 2.4604) // 424
    (2.771639 -1.14805 0.0) // 425
    (2.84079 0.964318 0.0) // 426
    (2.84079 0.964318 2.4604) // 427
    (2.84079 -0.964318 2.4604) // 428
    (2.84079 -0.964318 0.0) // 429
    (2.897777 0.776457 0.0) // 430
    (2.897777 0.776457 2.4604) // 431
    (2.897777 -0.776457 2.4604) // 432
    (2.897777 -0.776457 0.0) // 433
    (2.942356 0.585271 0.0) // 434
    (2.942356 0.585271 2.4604) // 435
    (2.942356 -0.585271 2.4604) // 436
    (2.942356 -0.585271 0.0) // 437
    (2.974335 0.391579 0.0) // 438
    (2.974335 0.391579 2.4604) // 439
    (2.974335 -0.391579 2.4604) // 440
    (2.974335 -0.391579 0.0) // 441
    (2.993577 0.196209 0.0) // 442
    (2.993577 0.196209 2.4604) // 443
    (2.993577 -0.196209 2.4604) // 444
    (2.993577 -0.196209 0.0) // 445
    (3.0 0.0 0.0) // 446
    (3.0 0.0 2.4604) // 447
    (0.578978 0.109206 4.264804) // 448
    (0.58 0.109 4.265) // 449
    (2.12132 2.12132 4.365) // 450
    (2.019038 2.218893 4.364804) // 451
    (0.57896 0.108932 4.264801) // 452
    (2.12132 -2.12132 4.365) // 453
    (2.019038 -2.218893 4.364801) // 454
    (0.575916 0.10982 4.264217) // 455
    (1.912272 2.31154 4.364217) // 456
    (0.575844 0.108727 4.264203) // 457
    (1.912272 -2.31154 4.364203) // 458
    (0.570824 0.110836 4.263242) // 459
    (1.801261 2.399054 4.363242) // 460
    (0.570663 0.108389 4.263211) // 461
    (1.801261 -2.399054 4.363211) // 462
    (0.56372 0.112242 4.261881) // 463
    (1.68625 2.481242 4.361881) // 464
    (0.563439 0.107919 4.261827) // 465
    (1.68625 -2.481242 4.361827) // 466
    (0.554629 0.114019 4.260139) // 467
    (1.567496 2.55792 4.360139) // 468
    (0.5542 0.107322 4.260057) // 469
    (1.567496 -2.55792 4.360057) // 470
    (0.543584 0.116149 4.258025) // 471
    (1.445261 2.62892 4.358025) // 472
    (0.542984 0.106602 4.25791) // 473
    (1.445261 -2.62892 4.35791) // 474
    (0.530621 0.118608 4.255544) // 475
    (1.319818 2.694083 4.355544) // 476
    (0.529833 0.105766 4.255393) // 477
    (1.319818 -2.694083 4.355393) // 478
    (0.515789 0.121365 4.252707) // 479
    (1.191444 2.753264 4.352707) // 480
    (0.514798 0.104817 4.252517) // 481
    (1.191444 -2.753264 4.352517) // 482
    (0.49914 0.124394 4.249524) // 483
    (1.060425 2.806332 4.349524) // 484
    (0.497941 0.103763 4.249295) // 485
    (1.060425 -2.806332 4.349295) // 486
    (0.480732 0.127658 4.246008) // 487
    (0.927051 2.85317 4.346008) // 488
    (0.479325 0.102611 4.245739) // 489
    (0.927051 -2.85317 4.345739) // 490
    (0.460634 0.131126 4.242171) // 491
    (0.791619 2.893672 4.342171) // 492
    (0.459025 0.101364 4.241864) // 493
    (0.791619 -2.893672 4.341864) // 494
    (0.438917 0.134762 4.238028) // 495
    (0.65443 2.92775 4.338028) // 496
    (0.43712 0.10003 4.237685) // 497
    (0.65443 -2.92775 4.337685) // 498
    (0.415661 0.138528 4.233595) // 499
    (0.515787 2.955328 4.333595) // 500
    (0.413694 0.098617 4.23322) // 501
    (0.515787 -2.955328 4.33322) // 502
    (0.390952 0.14239 4.228889) // 503
    (0.376 2.976344 4.328889) // 504
    (0.388839 0.097127 4.228487) // 505
    (0.376 -2.976344 4.328487) // 506
    (0.364882 0.146308 4.223929) // 507
    (0.235377 2.990752 4.323929) // 508
    (0.362652 0.09557 4.223505) // 509
    (0.235377 -2.990752 4.323505) // 510
    (0.337547 0.150246 4.218733) // 511
    (0.094232 2.99852 4.318733) // 512
    (0.335235 0.093952 4.218294) // 513
    (0.094232 -2.99852 4.318294) // 514
    (0.309093 0.154161 4.215) // 515
    (-0.047122 2.99963 4.315) // 516
    (0.306749 0.092283 4.215) // 517
    (-0.047122 -2.99963 4.315) // 518
    (0.279706 0.158002 4.215) // 519
    (-0.188372 2.99408 4.315) // 520
    (0.277362 0.090576 4.215) // 521
    (-0.188372 -2.99408 4.315) // 522
    (0.249416 0.16175 4.215) // 523
    (-0.329203 2.981883 4.315) // 524
    (0.247114 0.088837 4.215) // 525
    (-0.329203 -2.981883 4.315) // 526
    (0.218341 0.165366 4.215) // 527
    (-0.469303 2.963065 4.315) // 528
    (0.216127 0.087077 4.215) // 529
    (-0.469303 -2.963065 4.315) // 530
    (0.186603 0.168817 4.215) // 531
    (-0.608362 2.937668 4.315) // 532
    (0.184522 0.085311 4.215) // 533
    (-0.608362 -2.937668 4.315) // 534
    (0.154328 0.172068 4.215) // 535
    (-0.74607 2.905749 4.315) // 536
    (0.152423 0.083554 4.215) // 537
    (-0.74607 -2.905749 4.315) // 538
    (0.121642 0.175087 4.215) // 539
    (-0.882121 2.867379 4.315) // 540
    (0.119957 0.081826 4.215) // 541
    (-0.882121 -2.867379 4.315) // 542
    (0.088678 0.177838 4.215) // 543
    (-1.016214 2.822642 4.315) // 544
    (0.087252 0.080147 4.215) // 545
    (-1.016214 -2.822642 4.315) // 546
    (0.055565 0.180293 4.215) // 547
    (-1.14805 2.771639 4.315) // 548
    (0.054435 0.078541 4.215) // 549
    (-1.14805 -2.771639 4.315) // 550
    (0.022436 0.18242 4.215) // 551
    (-1.277338 2.714481 4.315) // 552
    (0.021633 0.077031 4.215) // 553
    (-1.277338 -2.714481 4.315) // 554
    (-0.010575 0.184194 4.215) // 555
    (-1.403789 2.651297 4.315) // 556
    (-0.011025 0.075645 4.215) // 557
    (-1.403789 -2.651297 4.315) // 558
    (-0.043337 0.185587 4.215) // 559
    (-1.527124 2.582226 4.315) // 560
    (-0.043414 0.074409 4.215) // 561
    (-1.527124 -2.582226 4.315) // 562
    (-0.075907 0.186534 4.215) // 563
    (-1.647068 2.507422 4.315) // 564
    (-0.075218 0.073311 4.215) // 565
    (-1.647068 -2.507422 4.315) // 566
    (-0.108015 0.186928 4.215) // 567
    (-1.763356 2.427051 4.315) // 568
    (-0.106453 0.072292 4.215) // 569
    (-1.763356 -2.427051 4.315) // 570
    (-0.139478 0.186759 4.215) // 571
    (-1.875728 2.341291 4.315) // 572
    (-0.137053 0.071386 4.215) // 573
    (-1.875728 -2.341291 4.315) // 574
    (-0.170163 0.186027 4.215) // 575
    (-1.983936 2.250333 4.315) // 576
    (-0.166906 0.070628 4.215) // 577
    (-1.983936 -2.250333 4.315) // 578
    (-0.19994 0.184738 4.215) // 579
    (-2.087738 2.154379 4.315) // 580
    (-0.195901 0.070052 4.215) // 581
    (-2.087738 -2.154379 4.315) // 582
    (-0.228685 0.182905 4.215) // 583
    (-2.186906 2.053641 4.315) // 584
    (-0.223932 0.069694 4.215) // 585
    (-2.186906 -2.053641 4.315) // 586
    (-0.256277 0.180548 4.215) // 587
    (-2.281218 1.948344 4.315) // 588
    (-0.250898 0.069583 4.215) // 589
    (-2.281218 -1.948344 4.315) // 590
    (-0.282599 0.177694 4.215) // 591
    (-2.370465 1.838721 4.315) // 592
    (-0.276696 0.069749 4.215) // 593
    (-2.370465 -1.838721 4.315) // 594
    (-0.307542 0.174374 4.215) // 595
    (-2.454449 1.725016 4.315) // 596
    (-0.301232 0.070218 4.215) // 597
    (-2.454449 -1.725016 4.315) // 598
    (-0.331002 0.170628 4.215) // 599
    (-2.532984 1.60748 4.315) // 600
    (-0.324415 0.07101 4.215) // 601
    (-2.532984 -1.60748 4.315) // 602
    (-0.352884 0.166495 4.215) // 603
    (-2.605895 1.486376 4.315) // 604
    (-0.346156 0.072145 4.215) // 605
    (-2.605895 -1.486376 4.315) // 606
    (-0.373099 0.162024 4.215) // 607
    (-2.67302 1.361971 4.315) // 608
    (-0.366369 0.073636 4.215) // 609
    (-2.67302 -1.361971 4.315) // 610
    (-0.391565 0.157262 4.215) // 611
    (-2.73421 1.234543 4.315) // 612
    (-0.384979 0.075493 4.215) // 613
    (-2.73421 -1.234543 4.315) // 614
    (-0.408212 0.15226 4.215) // 615
    (-2.789329 1.104374 4.315) // 616
    (-0.401911 0.077724 4.215) // 617
    (-2.789329 -1.104374 4.315) // 618
    (-0.422974 0.147068 4.215) // 619
    (-2.838256 0.971752 4.315) // 620
    (-0.417095 0.080331 4.215) // 621
    (-2.838256 -0.971752 4.315) // 622
    (-0.435797 0.141734 4.215) // 623
    (-2.880881 0.836973 4.315) // 624
    (-0.430469 0.083316 4.215) // 625
    (-2.880881 -0.836973 4.315) // 626
    (-0.446634 0.136304 4.215) // 627
    (-2.91711 0.700336 4.315) // 628
    (-0.441975 0.086678 4.215) // 629
    (-2.91711 -0.700336 4.315) // 630
    (-0.455447 0.130821 4.215) // 631
    (-2.946862 0.562144 4.315) // 632
    (-0.451565 0.090413 4.215) // 633
    (-2.946862 -0.562144 4.315) // 634
    (-0.462207 0.125321 4.215) // 635
    (-2.970071 0.422704 4.315) // 636
    (-0.459194 0.094517 4.215) // 637
    (-2.970071 -0.422704 4.315) // 638
    (-0.466892 0.119837 4.215) // 639
    (-2.986686 0.282325 4.315) // 640
    (-0.464828 0.098987 4.215) // 641
    (-2.986686 -0.282325 4.315) // 642
    (-0.469492 0.114391 4.215) // 643
    (-2.99667 0.141319 4.315) // 644
    (-0.468437 0.103816 4.215) // 645
    (-2.99667 -0.141319 4.315) // 646
    (-0.47 0.109 4.215) // 647
    (-3.0 0.0 4.315) // 648
    (2.255519 1.978037 4.365) // 649
    (2.255519 -1.978037 4.365) // 650
    (2.38006 1.826284 4.365) // 651
    (2.38006 -1.826284 4.365) // 652
    (2.494409 1.666711 4.365) // 653
    (2.494409 -1.666711 4.365) // 654
    (2.598076 1.5 4.365) // 655
    (2.598076 -1.5 4.365) // 656
    (2.690618 1.326866 4.365) // 657
    (2.690618 -1.326866 4.365) // 658
    (2.771639 1.14805 4.365) // 659
    (2.771639 -1.14805 4.365) // 660
    (2.84079 0.964318 4.365) // 661
    (2.84079 -0.964318 4.365) // 662
    (2.897777 0.776457 4.365) // 663
    (2.897777 -0.776457 4.365) // 664
    (2.942356 0.585271 4.365) // 665
    (2.942356 -0.585271 4.365) // 666
    (2.974335 0.391579 4.365) // 667
    (2.974335 -0.391579 4.365) // 668
    (2.993577 0.196209 4.365) // 669
    (2.993577 -0.196209 4.365) // 670
    (3.0 0.0 4.365) // 671
    (0.566994 0.109203 4.3) // 672
    (0.568 0.109 4.3) // 673
    (2.12132 2.12132 4.4) // 674
    (2.019038 2.218893 4.4) // 675
    (0.566976 0.108933 4.3) // 676
    (2.12132 -2.12132 4.4) // 677
    (2.019038 -2.218893 4.4) // 678
    (0.563979 0.109808 4.3) // 679
    (1.912272 2.31154 4.4) // 680
    (0.563908 0.108731 4.3) // 681
    (1.912272 -2.31154 4.4) // 682
    (0.558966 0.110808 4.3) // 683
    (1.801261 2.399054 4.4) // 684
    (0.558808 0.108398 4.3) // 685
    (1.801261 -2.399054 4.4) // 686
    (0.551974 0.112191 4.3) // 687
    (1.68625 2.481242 4.4) // 688
    (0.551698 0.107936 4.3) // 689
    (1.68625 -2.481242 4.4) // 690
    (0.543029 0.11394 4.3) // 691
    (1.567496 2.55792 4.4) // 692
    (0.542607 0.107348 4.3) // 693
    (1.567496 -2.55792 4.4) // 694
    (0.532165 0.116035 4.3) // 695
    (1.445261 2.62892 4.4) // 696
    (0.531575 0.106641 4.3) // 697
    (1.445261 -2.62892 4.4) // 698
    (0.519421 0.118452 4.3) // 699
    (1.319818 2.694083 4.4) // 700
    (0.518646 0.105818 4.3) // 701
    (1.319818 -2.694083 4.4) // 702
    (0.504846 0.121162 4.3) // 703
    (1.191444 2.753264 4.4) // 704
    (0.503873 0.104886 4.3) // 705
    (1.191444 -2.753264 4.4) // 706
    (0.488495 0.124136 4.3) // 707
    (1.060425 2.806332 4.4) // 708
    (0.487318 0.103851 4.3) // 709
    (1.060425 -2.806332 4.4) // 710
    (0.470429 0.127339 4.3) // 711
    (0.927051 2.85317 4.4) // 712
    (0.469049 0.10272 4.3) // 713
    (0.927051 -2.85317 4.4) // 714
    (0.450718 0.13074 4.3) // 715
    (0.791619 2.893672 4.4) // 716
    (0.44914 0.101498 4.3) // 717
    (0.791619 -2.893672 4.4) // 718
    (0.429435 0.134302 4.3) // 719
    (0.65443 2.92775 4.4) // 720
    (0.427674 0.100191 4.3) // 721
    (0.65443 -2.92775 4.4) // 722
    (0.406662 0.137989 4.3) // 723
    (0.515787 2.955328 4.4) // 724
    (0.404737 0.098807 4.3) // 725
    (0.515787 -2.955328 4.4) // 726
    (0.382488 0.141765 4.3) // 727
    (0.376 2.976344 4.4) // 728
    (0.380422 0.09735 4.3) // 729
    (0.376 -2.976344 4.4) // 730
    (0.357005 0.145593 4.3) // 731
    (0.235377 2.990752 4.4) // 732
    (0.354826 0.095828 4.3) // 733
    (0.235377 -2.990752 4.4) // 734
    (0.330311 0.149436 4.3) // 735
    (0.094232 2.99852 4.4) // 736
    (0.328055 0.094248 4.3) // 737
    (0.094232 -2.99852 4.4) // 738
    (0.302511 0.153257 4.3) // 739
    (-0.047122 2.99963 4.4) // 740
    (0.300214 0.092617 4.3) // 741
    (-0.047122 -2.99963 4.4) // 742
    (0.273712 0.157022 4.3) // 743
    (-0.188372 2.99408 4.4) // 744
    (0.271414 0.090944 4.3) // 745
    (-0.188372 -2.99408 4.4) // 746
    (0.244028 0.160695 4.3) // 747
    (-0.329203 2.981883 4.4) // 748
    (0.241772 0.08924 4.3) // 749
    (-0.329203 -2.981883 4.4) // 750
    (0.213574 0.164239 4.3) // 751
    (-0.469303 2.963065 4.4) // 752
    (0.211404 0.087516 4.3) // 753
    (-0.469303 -2.963065 4.4) // 754
    (0.182471 0.167621 4.3) // 755
    (-0.608362 2.937668 4.4) // 756
    (0.180431 0.085785 4.3) // 757
    (-0.608362 -2.937668 4.4) // 758
    (0.150841 0.170807 4.3) // 759
    (-0.74607 2.905749 4.4) // 760
    (0.148975 0.084063 4.3) // 761
    (-0.74607 -2.905749 4.4) // 762
    (0.11881 0.173765 4.3) // 763
    (-0.882121 2.867379 4.4) // 764
    (0.117158 0.082369 4.3) // 765
    (-0.882121 -2.867379 4.4) // 766
    (0.086504 0.176461 4.3) // 767
    (-1.016214 2.822642 4.4) // 768
    (0.085107 0.080724 4.3) // 769
    (-1.016214 -2.822642 4.4) // 770
    (0.054054 0.178867 4.3) // 771
    (-1.14805 2.771639 4.4) // 772
    (0.052946 0.07915 4.3) // 773
    (-1.14805 -2.771639 4.4) // 774
    (0.021588 0.180952 4.3) // 775
    (-1.277338 2.714481 4.4) // 776
    (0.0208 0.07767 4.3) // 777
    (-1.277338 -2.714481 4.4) // 778
    (-0.010763 0.18269 4.3) // 779
    (-1.403789 2.651297 4.4) // 780
    (-0.011205 0.076312 4.3) // 781
    (-1.403789 -2.651297 4.4) // 782
    (-0.04287 0.184055 4.3) // 783
    (-1.527124 2.582226 4.4) // 784
    (-0.042946 0.075101 4.3) // 785
    (-1.527124 -2.582226 4.4) // 786
    (-0.074789 0.184983 4.3) // 787
    (-1.647068 2.507422 4.4) // 788
    (-0.074113 0.074024 4.3) // 789
    (-1.647068 -2.507422 4.4) // 790
    (-0.106254 0.185369 4.3) // 791
    (-1.763356 2.427051 4.4) // 792
    (-0.104724 0.073026 4.3) // 793
    (-1.763356 -2.427051 4.4) // 794
    (-0.137088 0.185204 4.3) // 795
    (-1.875728 2.341291 4.4) // 796
    (-0.134712 0.072138 4.3) // 797
    (-1.875728 -2.341291 4.4) // 798
    (-0.16716 0.184486 4.3) // 799
    (-1.983936 2.250333 4.4) // 800
    (-0.163968 0.071395 4.3) // 801
    (-1.983936 -2.250333 4.4) // 802